<?xml version="1.0" encoding="utf-8"?>
<!DOCTYPE population SYSTEM "http://www.matsim.org/files/dtd/population_v6.dtd">

<population>



<!-- ====================================================================== -->

	<person id="car_home0_work115_80">
		<plan selected="yes">
			<activity type="home" x="0.0" y="0.0" end_time="14:22:08" >
			</activity>
			<leg mode="car">
			</leg>
			<activity type="work" x="8000.0" y="6000.0" end_time="24:00:00" >
			</activity>
		</plan>

	</person>

<!-- ====================================================================== -->

	<person id="car_home106_work96_47">
		<plan selected="yes">
			<activity type="home" x="7000.0" y="9000.0" end_time="16:58:41" >
			</activity>
			<leg mode="car">
			</leg>
			<activity type="work" x="7000.0" y="0.0" end_time="24:00:00" >
			</activity>
		</plan>

	</person>

<!-- ====================================================================== -->

	<person id="car_home108_work14_86">
		<plan selected="yes">
			<activity type="home" x="8000.0" y="0.0" end_time="23:32:01" >
			</activity>
			<leg mode="car">
			</leg>
			<activity type="work" x="10000.0" y="0.0" end_time="24:00:00" >
			</activity>
		</plan>

	</person>

<!-- ====================================================================== -->

	<person id="car_home111_work4_39">
		<plan selected="yes">
			<activity type="home" x="8000.0" y="2000.0" end_time="07:42:10" >
			</activity>
			<leg mode="car">
			</leg>
			<activity type="work" x="9000.0" y="2000.0" end_time="24:00:00" >
			</activity>
		</plan>

	</person>

<!-- ====================================================================== -->

	<person id="car_home113_work115_6">
		<plan selected="yes">
			<activity type="home" x="8000.0" y="4000.0" end_time="06:33:02" >
			</activity>
			<leg mode="car">
			</leg>
			<activity type="work" x="8000.0" y="6000.0" end_time="24:00:00" >
			</activity>
		</plan>

	</person>

<!-- ====================================================================== -->

	<person id="car_home114_work94_3">
		<plan selected="yes">
			<activity type="home" x="8000.0" y="5000.0" end_time="10:00:27" >
			</activity>
			<leg mode="car">
			</leg>
			<activity type="work" x="6000.0" y="9000.0" end_time="24:00:00" >
			</activity>
		</plan>

	</person>

<!-- ====================================================================== -->

	<person id="car_home115_work110_27">
		<plan selected="yes">
			<activity type="home" x="8000.0" y="6000.0" end_time="13:23:41" >
			</activity>
			<leg mode="car">
			</leg>
			<activity type="work" x="0.0" y="9000.0" end_time="24:00:00" >
			</activity>
		</plan>

	</person>

<!-- ====================================================================== -->

	<person id="car_home116_work105_4">
		<plan selected="yes">
			<activity type="home" x="8000.0" y="7000.0" end_time="19:28:03" >
			</activity>
			<leg mode="car">
			</leg>
			<activity type="work" x="7000.0" y="8000.0" end_time="24:00:00" >
			</activity>
		</plan>

	</person>

<!-- ====================================================================== -->

	<person id="car_home116_work71_50">
		<plan selected="yes">
			<activity type="home" x="8000.0" y="7000.0" end_time="18:23:02" >
			</activity>
			<leg mode="car">
			</leg>
			<activity type="work" x="4000.0" y="10000.0" end_time="24:00:00" >
			</activity>
		</plan>

	</person>

<!-- ====================================================================== -->

	<person id="car_home116_work81_9">
		<plan selected="yes">
			<activity type="home" x="8000.0" y="7000.0" end_time="23:43:31" >
			</activity>
			<leg mode="car">
			</leg>
			<activity type="work" x="5000.0" y="8000.0" end_time="24:00:00" >
			</activity>
		</plan>

	</person>

<!-- ====================================================================== -->

	<person id="car_home116_work93_29">
		<plan selected="yes">
			<activity type="home" x="8000.0" y="7000.0" end_time="14:06:01" >
			</activity>
			<leg mode="car">
			</leg>
			<activity type="work" x="6000.0" y="8000.0" end_time="24:00:00" >
			</activity>
		</plan>

	</person>

<!-- ====================================================================== -->

	<person id="car_home119_work12_17">
		<plan selected="yes">
			<activity type="home" x="8000.0" y="10000.0" end_time="03:59:37" >
			</activity>
			<leg mode="car">
			</leg>
			<activity type="work" x="9000.0" y="10000.0" end_time="24:00:00" >
			</activity>
		</plan>

	</person>

<!-- ====================================================================== -->

	<person id="car_home11_work0_76">
		<plan selected="yes">
			<activity type="home" x="9000.0" y="9000.0" end_time="08:29:55" >
			</activity>
			<leg mode="car">
			</leg>
			<activity type="work" x="0.0" y="0.0" end_time="24:00:00" >
			</activity>
		</plan>

	</person>

<!-- ====================================================================== -->

	<person id="car_home13_work20_10">
		<plan selected="yes">
			<activity type="home" x="1000.0" y="0.0" end_time="14:34:37" >
			</activity>
			<leg mode="car">
			</leg>
			<activity type="work" x="10000.0" y="6000.0" end_time="24:00:00" >
			</activity>
		</plan>

	</person>

<!-- ====================================================================== -->

	<person id="car_home13_work23_60">
		<plan selected="yes">
			<activity type="home" x="1000.0" y="0.0" end_time="12:55:11" >
			</activity>
			<leg mode="car">
			</leg>
			<activity type="work" x="10000.0" y="9000.0" end_time="24:00:00" >
			</activity>
		</plan>

	</person>

<!-- ====================================================================== -->

	<person id="car_home14_work21_33">
		<plan selected="yes">
			<activity type="home" x="10000.0" y="0.0" end_time="10:35:38" >
			</activity>
			<leg mode="car">
			</leg>
			<activity type="work" x="10000.0" y="7000.0" end_time="24:00:00" >
			</activity>
		</plan>

	</person>

<!-- ====================================================================== -->

	<person id="car_home14_work27_51">
		<plan selected="yes">
			<activity type="home" x="10000.0" y="0.0" end_time="22:06:25" >
			</activity>
			<leg mode="car">
			</leg>
			<activity type="work" x="1000.0" y="3000.0" end_time="24:00:00" >
			</activity>
		</plan>

	</person>

<!-- ====================================================================== -->

	<person id="car_home14_work35_52">
		<plan selected="yes">
			<activity type="home" x="10000.0" y="0.0" end_time="00:42:53" >
			</activity>
			<leg mode="car">
			</leg>
			<activity type="work" x="1000.0" y="10000.0" end_time="24:00:00" >
			</activity>
		</plan>

	</person>

<!-- ====================================================================== -->

	<person id="car_home14_work6_18">
		<plan selected="yes">
			<activity type="home" x="10000.0" y="0.0" end_time="23:41:45" >
			</activity>
			<leg mode="car">
			</leg>
			<activity type="work" x="9000.0" y="4000.0" end_time="24:00:00" >
			</activity>
		</plan>

	</person>

<!-- ====================================================================== -->

	<person id="car_home14_work91_64">
		<plan selected="yes">
			<activity type="home" x="10000.0" y="0.0" end_time="12:47:09" >
			</activity>
			<leg mode="car">
			</leg>
			<activity type="work" x="6000.0" y="6000.0" end_time="24:00:00" >
			</activity>
		</plan>

	</person>

<!-- ====================================================================== -->

	<person id="car_home15_work25_93">
		<plan selected="yes">
			<activity type="home" x="10000.0" y="1000.0" end_time="19:47:09" >
			</activity>
			<leg mode="car">
			</leg>
			<activity type="work" x="10000.0" y="10000.0" end_time="24:00:00" >
			</activity>
		</plan>

	</person>

<!-- ====================================================================== -->

	<person id="car_home15_work44_7">
		<plan selected="yes">
			<activity type="home" x="10000.0" y="1000.0" end_time="05:52:24" >
			</activity>
			<leg mode="car">
			</leg>
			<activity type="work" x="0.0" y="3000.0" end_time="24:00:00" >
			</activity>
		</plan>

	</person>

<!-- ====================================================================== -->

	<person id="car_home15_work90_0">
		<plan selected="yes">
			<activity type="home" x="10000.0" y="1000.0" end_time="10:31:14" >
			</activity>
			<leg mode="car">
			</leg>
			<activity type="work" x="6000.0" y="5000.0" end_time="24:00:00" >
			</activity>
		</plan>

	</person>

<!-- ====================================================================== -->

	<person id="car_home16_work63_5">
		<plan selected="yes">
			<activity type="home" x="10000.0" y="2000.0" end_time="10:36:23" >
			</activity>
			<leg mode="car">
			</leg>
			<activity type="work" x="4000.0" y="3000.0" end_time="24:00:00" >
			</activity>
		</plan>

	</person>

<!-- ====================================================================== -->

	<person id="car_home16_work87_91">
		<plan selected="yes">
			<activity type="home" x="10000.0" y="2000.0" end_time="00:39:37" >
			</activity>
			<leg mode="car">
			</leg>
			<activity type="work" x="6000.0" y="3000.0" end_time="24:00:00" >
			</activity>
		</plan>

	</person>

<!-- ====================================================================== -->

	<person id="car_home18_work20_42">
		<plan selected="yes">
			<activity type="home" x="10000.0" y="4000.0" end_time="05:39:41" >
			</activity>
			<leg mode="car">
			</leg>
			<activity type="work" x="10000.0" y="6000.0" end_time="24:00:00" >
			</activity>
		</plan>

	</person>

<!-- ====================================================================== -->

	<person id="car_home1_work40_97">
		<plan selected="yes">
			<activity type="home" x="0.0" y="1000.0" end_time="20:02:31" >
			</activity>
			<leg mode="car">
			</leg>
			<activity type="work" x="2000.0" y="4000.0" end_time="24:00:00" >
			</activity>
		</plan>

	</person>

<!-- ====================================================================== -->

	<person id="car_home21_work27_71">
		<plan selected="yes">
			<activity type="home" x="10000.0" y="7000.0" end_time="22:41:26" >
			</activity>
			<leg mode="car">
			</leg>
			<activity type="work" x="1000.0" y="3000.0" end_time="24:00:00" >
			</activity>
		</plan>

	</person>

<!-- ====================================================================== -->

	<person id="car_home23_work111_21">
		<plan selected="yes">
			<activity type="home" x="10000.0" y="9000.0" end_time="01:32:30" >
			</activity>
			<leg mode="car">
			</leg>
			<activity type="work" x="8000.0" y="2000.0" end_time="24:00:00" >
			</activity>
		</plan>

	</person>

<!-- ====================================================================== -->

	<person id="car_home23_work54_57">
		<plan selected="yes">
			<activity type="home" x="10000.0" y="9000.0" end_time="04:01:28" >
			</activity>
			<leg mode="car">
			</leg>
			<activity type="work" x="3000.0" y="6000.0" end_time="24:00:00" >
			</activity>
		</plan>

	</person>

<!-- ====================================================================== -->

	<person id="car_home25_work102_2">
		<plan selected="yes">
			<activity type="home" x="10000.0" y="10000.0" end_time="12:14:37" >
			</activity>
			<leg mode="car">
			</leg>
			<activity type="work" x="7000.0" y="5000.0" end_time="24:00:00" >
			</activity>
		</plan>

	</person>

<!-- ====================================================================== -->

	<person id="car_home25_work1_40">
		<plan selected="yes">
			<activity type="home" x="10000.0" y="10000.0" end_time="21:43:32" >
			</activity>
			<leg mode="car">
			</leg>
			<activity type="work" x="0.0" y="1000.0" end_time="24:00:00" >
			</activity>
		</plan>

	</person>

<!-- ====================================================================== -->

	<person id="car_home25_work69_65">
		<plan selected="yes">
			<activity type="home" x="10000.0" y="10000.0" end_time="08:53:32" >
			</activity>
			<leg mode="car">
			</leg>
			<activity type="work" x="4000.0" y="8000.0" end_time="24:00:00" >
			</activity>
		</plan>

	</person>

<!-- ====================================================================== -->

	<person id="car_home26_work14_8">
		<plan selected="yes">
			<activity type="home" x="1000.0" y="2000.0" end_time="04:53:51" >
			</activity>
			<leg mode="car">
			</leg>
			<activity type="work" x="10000.0" y="0.0" end_time="24:00:00" >
			</activity>
		</plan>

	</person>

<!-- ====================================================================== -->

	<person id="car_home27_work23_82">
		<plan selected="yes">
			<activity type="home" x="1000.0" y="3000.0" end_time="19:00:09" >
			</activity>
			<leg mode="car">
			</leg>
			<activity type="work" x="10000.0" y="9000.0" end_time="24:00:00" >
			</activity>
		</plan>

	</person>

<!-- ====================================================================== -->

	<person id="car_home28_work82_88">
		<plan selected="yes">
			<activity type="home" x="1000.0" y="4000.0" end_time="14:58:57" >
			</activity>
			<leg mode="car">
			</leg>
			<activity type="work" x="5000.0" y="9000.0" end_time="24:00:00" >
			</activity>
		</plan>

	</person>

<!-- ====================================================================== -->

	<person id="car_home28_work85_55">
		<plan selected="yes">
			<activity type="home" x="1000.0" y="4000.0" end_time="23:33:26" >
			</activity>
			<leg mode="car">
			</leg>
			<activity type="work" x="6000.0" y="1000.0" end_time="24:00:00" >
			</activity>
		</plan>

	</person>

<!-- ====================================================================== -->

	<person id="car_home28_work97_23">
		<plan selected="yes">
			<activity type="home" x="1000.0" y="4000.0" end_time="00:47:08" >
			</activity>
			<leg mode="car">
			</leg>
			<activity type="work" x="7000.0" y="1000.0" end_time="24:00:00" >
			</activity>
		</plan>

	</person>

<!-- ====================================================================== -->

	<person id="car_home29_work105_56">
		<plan selected="yes">
			<activity type="home" x="1000.0" y="5000.0" end_time="07:33:45" >
			</activity>
			<leg mode="car">
			</leg>
			<activity type="work" x="7000.0" y="8000.0" end_time="24:00:00" >
			</activity>
		</plan>

	</person>

<!-- ====================================================================== -->

	<person id="car_home29_work86_36">
		<plan selected="yes">
			<activity type="home" x="1000.0" y="5000.0" end_time="08:07:55" >
			</activity>
			<leg mode="car">
			</leg>
			<activity type="work" x="6000.0" y="2000.0" end_time="24:00:00" >
			</activity>
		</plan>

	</person>

<!-- ====================================================================== -->

	<person id="car_home32_work106_48">
		<plan selected="yes">
			<activity type="home" x="1000.0" y="8000.0" end_time="21:53:29" >
			</activity>
			<leg mode="car">
			</leg>
			<activity type="work" x="7000.0" y="9000.0" end_time="24:00:00" >
			</activity>
		</plan>

	</person>

<!-- ====================================================================== -->

	<person id="car_home32_work42_69">
		<plan selected="yes">
			<activity type="home" x="1000.0" y="8000.0" end_time="05:03:55" >
			</activity>
			<leg mode="car">
			</leg>
			<activity type="work" x="2000.0" y="6000.0" end_time="24:00:00" >
			</activity>
		</plan>

	</person>

<!-- ====================================================================== -->

	<person id="car_home33_work81_20">
		<plan selected="yes">
			<activity type="home" x="0.0" y="2000.0" end_time="21:39:43" >
			</activity>
			<leg mode="car">
			</leg>
			<activity type="work" x="5000.0" y="8000.0" end_time="24:00:00" >
			</activity>
		</plan>

	</person>

<!-- ====================================================================== -->

	<person id="car_home38_work110_75">
		<plan selected="yes">
			<activity type="home" x="2000.0" y="2000.0" end_time="03:26:41" >
			</activity>
			<leg mode="car">
			</leg>
			<activity type="work" x="0.0" y="9000.0" end_time="24:00:00" >
			</activity>
		</plan>

	</person>

<!-- ====================================================================== -->

	<person id="car_home38_work39_95">
		<plan selected="yes">
			<activity type="home" x="2000.0" y="2000.0" end_time="11:21:08" >
			</activity>
			<leg mode="car">
			</leg>
			<activity type="work" x="2000.0" y="3000.0" end_time="24:00:00" >
			</activity>
		</plan>

	</person>

<!-- ====================================================================== -->

	<person id="car_home39_work48_94">
		<plan selected="yes">
			<activity type="home" x="2000.0" y="3000.0" end_time="19:37:31" >
			</activity>
			<leg mode="car">
			</leg>
			<activity type="work" x="3000.0" y="0.0" end_time="24:00:00" >
			</activity>
		</plan>

	</person>

<!-- ====================================================================== -->

	<person id="car_home3_work98_31">
		<plan selected="yes">
			<activity type="home" x="9000.0" y="1000.0" end_time="18:30:12" >
			</activity>
			<leg mode="car">
			</leg>
			<activity type="work" x="7000.0" y="2000.0" end_time="24:00:00" >
			</activity>
		</plan>

	</person>

<!-- ====================================================================== -->

	<person id="car_home40_work29_46">
		<plan selected="yes">
			<activity type="home" x="2000.0" y="4000.0" end_time="00:39:28" >
			</activity>
			<leg mode="car">
			</leg>
			<activity type="work" x="1000.0" y="5000.0" end_time="24:00:00" >
			</activity>
		</plan>

	</person>

<!-- ====================================================================== -->

	<person id="car_home41_work54_98">
		<plan selected="yes">
			<activity type="home" x="2000.0" y="5000.0" end_time="23:54:15" >
			</activity>
			<leg mode="car">
			</leg>
			<activity type="work" x="3000.0" y="6000.0" end_time="24:00:00" >
			</activity>
		</plan>

	</person>

<!-- ====================================================================== -->

	<person id="car_home43_work42_67">
		<plan selected="yes">
			<activity type="home" x="2000.0" y="7000.0" end_time="20:41:58" >
			</activity>
			<leg mode="car">
			</leg>
			<activity type="work" x="2000.0" y="6000.0" end_time="24:00:00" >
			</activity>
		</plan>

	</person>

<!-- ====================================================================== -->

	<person id="car_home45_work62_77">
		<plan selected="yes">
			<activity type="home" x="2000.0" y="8000.0" end_time="22:31:28" >
			</activity>
			<leg mode="car">
			</leg>
			<activity type="work" x="4000.0" y="2000.0" end_time="24:00:00" >
			</activity>
		</plan>

	</person>

<!-- ====================================================================== -->

	<person id="car_home46_work29_30">
		<plan selected="yes">
			<activity type="home" x="2000.0" y="9000.0" end_time="04:47:16" >
			</activity>
			<leg mode="car">
			</leg>
			<activity type="work" x="1000.0" y="5000.0" end_time="24:00:00" >
			</activity>
		</plan>

	</person>

<!-- ====================================================================== -->

	<person id="car_home47_work77_37">
		<plan selected="yes">
			<activity type="home" x="2000.0" y="10000.0" end_time="20:09:47" >
			</activity>
			<leg mode="car">
			</leg>
			<activity type="work" x="0.0" y="6000.0" end_time="24:00:00" >
			</activity>
		</plan>

	</person>

<!-- ====================================================================== -->

	<person id="car_home48_work23_34">
		<plan selected="yes">
			<activity type="home" x="3000.0" y="0.0" end_time="08:28:46" >
			</activity>
			<leg mode="car">
			</leg>
			<activity type="work" x="10000.0" y="9000.0" end_time="24:00:00" >
			</activity>
		</plan>

	</person>

<!-- ====================================================================== -->

	<person id="car_home49_work108_54">
		<plan selected="yes">
			<activity type="home" x="3000.0" y="1000.0" end_time="21:01:23" >
			</activity>
			<leg mode="car">
			</leg>
			<activity type="work" x="8000.0" y="0.0" end_time="24:00:00" >
			</activity>
		</plan>

	</person>

<!-- ====================================================================== -->

	<person id="car_home49_work78_24">
		<plan selected="yes">
			<activity type="home" x="3000.0" y="1000.0" end_time="20:30:40" >
			</activity>
			<leg mode="car">
			</leg>
			<activity type="work" x="5000.0" y="5000.0" end_time="24:00:00" >
			</activity>
		</plan>

	</person>

<!-- ====================================================================== -->

	<person id="car_home4_work109_16">
		<plan selected="yes">
			<activity type="home" x="9000.0" y="2000.0" end_time="06:30:23" >
			</activity>
			<leg mode="car">
			</leg>
			<activity type="work" x="8000.0" y="1000.0" end_time="24:00:00" >
			</activity>
		</plan>

	</person>

<!-- ====================================================================== -->

	<person id="car_home51_work7_11">
		<plan selected="yes">
			<activity type="home" x="3000.0" y="3000.0" end_time="12:07:15" >
			</activity>
			<leg mode="car">
			</leg>
			<activity type="work" x="9000.0" y="5000.0" end_time="24:00:00" >
			</activity>
		</plan>

	</person>

<!-- ====================================================================== -->

	<person id="car_home53_work100_59">
		<plan selected="yes">
			<activity type="home" x="3000.0" y="5000.0" end_time="15:23:37" >
			</activity>
			<leg mode="car">
			</leg>
			<activity type="work" x="7000.0" y="3000.0" end_time="24:00:00" >
			</activity>
		</plan>

	</person>

<!-- ====================================================================== -->

	<person id="car_home54_work7_13">
		<plan selected="yes">
			<activity type="home" x="3000.0" y="6000.0" end_time="23:43:21" >
			</activity>
			<leg mode="car">
			</leg>
			<activity type="work" x="9000.0" y="5000.0" end_time="24:00:00" >
			</activity>
		</plan>

	</person>

<!-- ====================================================================== -->

	<person id="car_home54_work83_28">
		<plan selected="yes">
			<activity type="home" x="3000.0" y="6000.0" end_time="02:29:08" >
			</activity>
			<leg mode="car">
			</leg>
			<activity type="work" x="5000.0" y="10000.0" end_time="24:00:00" >
			</activity>
		</plan>

	</person>

<!-- ====================================================================== -->

	<person id="car_home56_work59_61">
		<plan selected="yes">
			<activity type="home" x="3000.0" y="7000.0" end_time="11:48:35" >
			</activity>
			<leg mode="car">
			</leg>
			<activity type="work" x="3000.0" y="10000.0" end_time="24:00:00" >
			</activity>
		</plan>

	</person>

<!-- ====================================================================== -->

	<person id="car_home58_work36_1">
		<plan selected="yes">
			<activity type="home" x="3000.0" y="9000.0" end_time="01:26:17" >
			</activity>
			<leg mode="car">
			</leg>
			<activity type="work" x="2000.0" y="0.0" end_time="24:00:00" >
			</activity>
		</plan>

	</person>

<!-- ====================================================================== -->

	<person id="car_home59_work12_90">
		<plan selected="yes">
			<activity type="home" x="3000.0" y="10000.0" end_time="14:09:58" >
			</activity>
			<leg mode="car">
			</leg>
			<activity type="work" x="9000.0" y="10000.0" end_time="24:00:00" >
			</activity>
		</plan>

	</person>

<!-- ====================================================================== -->

	<person id="car_home59_work26_78">
		<plan selected="yes">
			<activity type="home" x="3000.0" y="10000.0" end_time="11:05:59" >
			</activity>
			<leg mode="car">
			</leg>
			<activity type="work" x="1000.0" y="2000.0" end_time="24:00:00" >
			</activity>
		</plan>

	</person>

<!-- ====================================================================== -->

	<person id="car_home5_work105_81">
		<plan selected="yes">
			<activity type="home" x="9000.0" y="3000.0" end_time="17:02:31" >
			</activity>
			<leg mode="car">
			</leg>
			<activity type="work" x="7000.0" y="8000.0" end_time="24:00:00" >
			</activity>
		</plan>

	</person>

<!-- ====================================================================== -->

	<person id="car_home5_work94_63">
		<plan selected="yes">
			<activity type="home" x="9000.0" y="3000.0" end_time="21:26:27" >
			</activity>
			<leg mode="car">
			</leg>
			<activity type="work" x="6000.0" y="9000.0" end_time="24:00:00" >
			</activity>
		</plan>

	</person>

<!-- ====================================================================== -->

	<person id="car_home60_work35_49">
		<plan selected="yes">
			<activity type="home" x="4000.0" y="0.0" end_time="08:07:13" >
			</activity>
			<leg mode="car">
			</leg>
			<activity type="work" x="1000.0" y="10000.0" end_time="24:00:00" >
			</activity>
		</plan>

	</person>

<!-- ====================================================================== -->

	<person id="car_home61_work112_72">
		<plan selected="yes">
			<activity type="home" x="4000.0" y="1000.0" end_time="14:14:57" >
			</activity>
			<leg mode="car">
			</leg>
			<activity type="work" x="8000.0" y="3000.0" end_time="24:00:00" >
			</activity>
		</plan>

	</person>

<!-- ====================================================================== -->

	<person id="car_home62_work73_38">
		<plan selected="yes">
			<activity type="home" x="4000.0" y="2000.0" end_time="22:53:24" >
			</activity>
			<leg mode="car">
			</leg>
			<activity type="work" x="5000.0" y="1000.0" end_time="24:00:00" >
			</activity>
		</plan>

	</person>

<!-- ====================================================================== -->

	<person id="car_home65_work19_87">
		<plan selected="yes">
			<activity type="home" x="4000.0" y="5000.0" end_time="23:00:23" >
			</activity>
			<leg mode="car">
			</leg>
			<activity type="work" x="10000.0" y="5000.0" end_time="24:00:00" >
			</activity>
		</plan>

	</person>

<!-- ====================================================================== -->

	<person id="car_home68_work53_70">
		<plan selected="yes">
			<activity type="home" x="4000.0" y="7000.0" end_time="03:04:25" >
			</activity>
			<leg mode="car">
			</leg>
			<activity type="work" x="3000.0" y="5000.0" end_time="24:00:00" >
			</activity>
		</plan>

	</person>

<!-- ====================================================================== -->

	<person id="car_home68_work70_44">
		<plan selected="yes">
			<activity type="home" x="4000.0" y="7000.0" end_time="07:22:58" >
			</activity>
			<leg mode="car">
			</leg>
			<activity type="work" x="4000.0" y="9000.0" end_time="24:00:00" >
			</activity>
		</plan>

	</person>

<!-- ====================================================================== -->

	<person id="car_home69_work36_43">
		<plan selected="yes">
			<activity type="home" x="4000.0" y="8000.0" end_time="17:04:30" >
			</activity>
			<leg mode="car">
			</leg>
			<activity type="work" x="2000.0" y="0.0" end_time="24:00:00" >
			</activity>
		</plan>

	</person>

<!-- ====================================================================== -->

	<person id="car_home72_work36_89">
		<plan selected="yes">
			<activity type="home" x="5000.0" y="0.0" end_time="22:38:09" >
			</activity>
			<leg mode="car">
			</leg>
			<activity type="work" x="2000.0" y="0.0" end_time="24:00:00" >
			</activity>
		</plan>

	</person>

<!-- ====================================================================== -->

	<person id="car_home74_work100_14">
		<plan selected="yes">
			<activity type="home" x="5000.0" y="2000.0" end_time="22:25:06" >
			</activity>
			<leg mode="car">
			</leg>
			<activity type="work" x="7000.0" y="3000.0" end_time="24:00:00" >
			</activity>
		</plan>

	</person>

<!-- ====================================================================== -->

	<person id="car_home74_work85_83">
		<plan selected="yes">
			<activity type="home" x="5000.0" y="2000.0" end_time="02:22:49" >
			</activity>
			<leg mode="car">
			</leg>
			<activity type="work" x="6000.0" y="1000.0" end_time="24:00:00" >
			</activity>
		</plan>

	</person>

<!-- ====================================================================== -->

	<person id="car_home76_work88_66">
		<plan selected="yes">
			<activity type="home" x="5000.0" y="4000.0" end_time="22:57:57" >
			</activity>
			<leg mode="car">
			</leg>
			<activity type="work" x="0.0" y="7000.0" end_time="24:00:00" >
			</activity>
		</plan>

	</person>

<!-- ====================================================================== -->

	<person id="car_home77_work3_85">
		<plan selected="yes">
			<activity type="home" x="0.0" y="6000.0" end_time="02:15:06" >
			</activity>
			<leg mode="car">
			</leg>
			<activity type="work" x="9000.0" y="1000.0" end_time="24:00:00" >
			</activity>
		</plan>

	</person>

<!-- ====================================================================== -->

	<person id="car_home79_work102_22">
		<plan selected="yes">
			<activity type="home" x="5000.0" y="6000.0" end_time="10:52:54" >
			</activity>
			<leg mode="car">
			</leg>
			<activity type="work" x="7000.0" y="5000.0" end_time="24:00:00" >
			</activity>
		</plan>

	</person>

<!-- ====================================================================== -->

	<person id="car_home79_work95_62">
		<plan selected="yes">
			<activity type="home" x="5000.0" y="6000.0" end_time="21:03:27" >
			</activity>
			<leg mode="car">
			</leg>
			<activity type="work" x="6000.0" y="10000.0" end_time="24:00:00" >
			</activity>
		</plan>

	</person>

<!-- ====================================================================== -->

	<person id="car_home7_work96_41">
		<plan selected="yes">
			<activity type="home" x="9000.0" y="5000.0" end_time="08:13:07" >
			</activity>
			<leg mode="car">
			</leg>
			<activity type="work" x="7000.0" y="0.0" end_time="24:00:00" >
			</activity>
		</plan>

	</person>

<!-- ====================================================================== -->

	<person id="car_home80_work93_45">
		<plan selected="yes">
			<activity type="home" x="5000.0" y="7000.0" end_time="20:12:43" >
			</activity>