<?xml version="1.0" encoding="UTF-8"?>
<!DOCTYPE network SYSTEM "http://www.matsim.org/files/dtd/network_v2.dtd">
<network>

<!-- ====================================================================== -->

	<nodes>
		<node id="0" x="0.0" y="0.0" >
		</node>
		<node id="1" x="0.0" y="1000.0" >
		</node>
		<node id="10" x="0.0" y="10000.0" >
		</node>
		<node id="100" x="9000.0" y="1000.0" >
		</node>
		<node id="101" x="9000.0" y="2000.0" >
		</node>
		<node id="102" x="9000.0" y="3000.0" >
		</node>
		<node id="103" x="9000.0" y="4000.0" >
		</node>
		<node id="104" x="9000.0" y="5000.0" >
		</node>
		<node id="105" x="9000.0" y="6000.0" >
		</node>
		<node id="106" x="9000.0" y="7000.0" >
		</node>
		<node id="107" x="9000.0" y="8000.0" >
		</node>
		<node id="108" x="9000.0" y="9000.0" >
		</node>
		<node id="109" x="9000.0" y="10000.0" >
		</node>
		<node id="11" x="1000.0" y="0.0" >
		</node>
		<node id="110" x="10000.0" y="0.0" >
		</node>
		<node id="111" x="10000.0" y="1000.0" >
		</node>
		<node id="112" x="10000.0" y="2000.0" >
		</node>
		<node id="113" x="10000.0" y="3000.0" >
		</node>
		<node id="114" x="10000.0" y="4000.0" >
		</node>
		<node id="115" x="10000.0" y="5000.0" >
		</node>
		<node id="116" x="10000.0" y="6000.0" >
		</node>
		<node id="117" x="10000.0" y="7000.0" >
		</node>
		<node id="118" x="10000.0" y="8000.0" >
		</node>
		<node id="119" x="10000.0" y="9000.0" >
		</node>
		<node id="12" x="1000.0" y="1000.0" >
		</node>
		<node id="120" x="10000.0" y="10000.0" >
		</node>
		<node id="13" x="1000.0" y="2000.0" >
		</node>
		<node id="14" x="1000.0" y="3000.0" >
		</node>
		<node id="15" x="1000.0" y="4000.0" >
		</node>
		<node id="16" x="1000.0" y="5000.0" >
		</node>
		<node id="17" x="1000.0" y="6000.0" >
		</node>
		<node id="18" x="1000.0" y="7000.0" >
		</node>
		<node id="19" x="1000.0" y="8000.0" >
		</node>
		<node id="2" x="0.0" y="2000.0" >
		</node>
		<node id="20" x="1000.0" y="9000.0" >
		</node>
		<node id="21" x="1000.0" y="10000.0" >
		</node>
		<node id="22" x="2000.0" y="0.0" >
		</node>
		<node id="23" x="2000.0" y="1000.0" >
		</node>
		<node id="24" x="2000.0" y="2000.0" >
		</node>
		<node id="25" x="2000.0" y="3000.0" >
		</node>
		<node id="26" x="2000.0" y="4000.0" >
		</node>
		<node id="27" x="2000.0" y="5000.0" >
		</node>
		<node id="28" x="2000.0" y="6000.0" >
		</node>
		<node id="29" x="2000.0" y="7000.0" >
		</node>
		<node id="3" x="0.0" y="3000.0" >
		</node>
		<node id="30" x="2000.0" y="8000.0" >
		</node>
		<node id="31" x="2000.0" y="9000.0" >
		</node>
		<node id="32" x="2000.0" y="10000.0" >
		</node>
		<node id="33" x="3000.0" y="0.0" >
		</node>
		<node id="34" x="3000.0" y="1000.0" >
		</node>
		<node id="35" x="3000.0" y="2000.0" >
		</node>
		<node id="36" x="3000.0" y="3000.0" >
		</node>
		<node id="37" x="3000.0" y="4000.0" >
		</node>
		<node id="38" x="3000.0" y="5000.0" >
		</node>
		<node id="39" x="3000.0" y="6000.0" >
		</node>
		<node id="4" x="0.0" y="4000.0" >
		</node>
		<node id="40" x="3000.0" y="7000.0" >
		</node>
		<node id="41" x="3000.0" y="8000.0" >
		</node>
		<node id="42" x="3000.0" y="9000.0" >
		</node>
		<node id="43" x="3000.0" y="10000.0" >
		</node>
		<node id="44" x="4000.0" y="0.0" >
		</node>
		<node id="45" x="4000.0" y="1000.0" >
		</node>
		<node id="46" x="4000.0" y="2000.0" >
		</node>
		<node id="47" x="4000.0" y="3000.0" >
		</node>
		<node id="48" x="4000.0" y="4000.0" >
		</node>
		<node id="49" x="4000.0" y="5000.0" >
		</node>
		<node id="5" x="0.0" y="5000.0" >
		</node>
		<node id="50" x="4000.0" y="6000.0" >
		</node>
		<node id="51" x="4000.0" y="7000.0" >
		</node>
		<node id="52" x="4000.0" y="8000.0" >
		</node>
		<node id="53" x="4000.0" y="9000.0" >
		</node>
		<node id="54" x="4000.0" y="10000.0" >
		</node>
		<node id="55" x="5000.0" y="0.0" >
		</node>
		<node id="56" x="5000.0" y="1000.0" >
		</node>
		<node id="57" x="5000.0" y="2000.0" >
		</node>
		<node id="58" x="5000.0" y="3000.0" >
		</node>
		<node id="59" x="5000.0" y="4000.0" >
		</node>
		<node id="6" x="0.0" y="6000.0" >
		</node>
		<node id="60" x="5000.0" y="5000.0" >
		</node>
		<node id="61" x="5000.0" y="6000.0" >
		</node>
		<node id="62" x="5000.0" y="7000.0" >
		</node>
		<node id="63" x="5000.0" y="8000.0" >
		</node>
		<node id="64" x="5000.0" y="9000.0" >
		</node>
		<node id="65" x="5000.0" y="10000.0" >
		</node>
		<node id="66" x="6000.0" y="0.0" >
		</node>
		<node id="67" x="6000.0" y="1000.0" >
		</node>
		<node id="68" x="6000.0" y="2000.0" >
		</node>
		<node id="69" x="6000.0" y="3000.0" >
		</node>
		<node id="7" x="0.0" y="7000.0" >
		</node>
		<node id="70" x="6000.0" y="4000.0" >
		</node>
		<node id="71" x="6000.0" y="5000.0" >
		</node>
		<node id="72" x="6000.0" y="6000.0" >
		</node>
		<node id="73" x="6000.0" y="7000.0" >
		</node>
		<node id="74" x="6000.0" y="8000.0" >
		</node>
		<node id="75" x="6000.0" y="9000.0" >
		</node>
		<node id="76" x="6000.0" y="10000.0" >
		</node>
		<node id="77" x="7000.0" y="0.0" >
		</node>
		<node id="78" x="7000.0" y="1000.0" >
		</node>
		<node id="79" x="7000.0" y="2000.0" >
		</node>
		<node id="8" x="0.0" y="8000.0" >
		</node>
		<node id="80" x="7000.0" y="3000.0" >
		</node>
		<node id="81" x="7000.0" y="4000.0" >
		</node>
		<node id="82" x="7000.0" y="5000.0" >
		</node>
		<node id="83" x="7000.0" y="6000.0" >
		</node>
		<node id="84" x="7000.0" y="7000.0" >
		</node>
		<node id="85" x="7000.0" y="8000.0" >
		</node>
		<node id="86" x="7000.0" y="9000.0" >
		</node>
		<node id="87" x="7000.0" y="10000.0" >
		</node>
		<node id="88" x="8000.0" y="0.0" >
		</node>
		<node id="89" x="8000.0" y="1000.0" >
		</node>
		<node id="9" x="0.0" y="9000.0" >
		</node>
		<node id="90" x="8000.0" y="2000.0" >
		</node>
		<node id="91" x="8000.0" y="3000.0" >
		</node>
		<node id="92" x="8000.0" y="4000.0" >
		</node>
		<node id="93" x="8000.0" y="5000.0" >
		</node>
		<node id="94" x="8000.0" y="6000.0" >
		</node>
		<node id="95" x="8000.0" y="7000.0" >
		</node>
		<node id="96" x="8000.0" y="8000.0" >
		</node>
		<node id="97" x="8000.0" y="9000.0" >
		</node>
		<node id="98" x="8000.0" y="10000.0" >
		</node>
		<node id="99" x="9000.0" y="0.0" >
		</node>
	</nodes>

<!-- ====================================================================== -->

	<links capperiod="01:00:00" effectivecellsize="7.5" effectivelanewidth="3.75">
		<link id="0_1" from="0" to="1" length="1000.0" freespeed="7.5" capacity="10.0" permlanes="1.0" oneway="1" modes="car" >
		</link>
		<link id="0_11" from="0" to="11" length="1000.0" freespeed="7.5" capacity="10.0" permlanes="1.0" oneway="1" modes="car" >
		</link>
		<link id="100_101" from="100" to="101" length="1000.0" freespeed="7.5" capacity="10.0" permlanes="1.0" oneway="1" modes="car, train" >
		</link>
		<link id="100_111" from="100" to="111" length="1000.0" freespeed="7.5" capacity="10.0" permlanes="1.0" oneway="1" modes="car, train" >
		</link>
		<link id="100_89" from="100" to="89" length="1000.0" freespeed="7.5" capacity="10.0" permlanes="1.0" oneway="1" modes="car, train" >
		</link>
		<link id="100_99" from="100" to="99" length="1000.0" freespeed="7.5" capacity="10.0" permlanes="1.0" oneway="1" modes="car, train" >
		</link>
		<link id="101_100" from="101" to="100" length="1000.0" freespeed="7.5" capacity="10.0" permlanes="1.0" oneway="1" modes="car, train" >
		</link>
		<link id="101_102" from="101" to="102" length="1000.0" freespeed="7.5" capacity="10.0" permlanes="1.0" oneway="1" modes="car, train" >
		</link>
		<link id="101_112" from="101" to="112" length="1000.0" freespeed="7.5" capacity="10.0" permlanes="1.0" oneway="1" modes="car" >
		</link>
		<link id="101_90" from="101" to="90" length="1000.0" freespeed="7.5" capacity="10.0" permlanes="1.0" oneway="1" modes="car" >
		</link>
		<link id="102_101" from="102" to="101" length="1000.0" freespeed="7.5" capacity="10.0" permlanes="1.0" oneway="1" modes="car, train" >
		</link>
		<link id="102_103" from="102" to="103" length="1000.0" freespeed="7.5" capacity="10.0" permlanes="1.0" oneway="1" modes="car, train" >
		</link>
		<link id="102_113" from="102" to="113" length="1000.0" freespeed="7.5" capacity="10.0" permlanes="1.0" oneway="1" modes="car, train" >
		</link>
		<link id="102_91" from="102" to="91" length="1000.0" freespeed="7.5" capacity="10.0" permlanes="1.0" oneway="1" modes="car, train" >
		</link>
		<link id="103_102" from="103" to="102" length="1000.0" freespeed="7.5" capacity="10.0" permlanes="1.0" oneway="1" modes="car, train" >
		</link>
		<link id="103_104" from="103" to="104" length="1000.0" freespeed="7.5" capacity="10.0" permlanes="1.0" oneway="1" modes="car, train" >
		</link>
		<link id="103_114" from="103" to="114" length="1000.0" freespeed="7.5" capacity="10.0" permlanes="1.0" oneway="1" modes="car" >
		</link>
		<link id="103_92" from="103" to="92" length="1000.0" freespeed="7.5" capacity="10.0" permlanes="1.0" oneway="1" modes="car" >
		</link>
		<link id="104_103" from="104" to="103" length="1000.0" freespeed="7.5" capacity="10.0" permlanes="1.0" oneway="1" modes="car, train" >
		</link>
		<link id="104_105" from="104" to="105" length="1000.0" freespeed="7.5" capacity="10.0" permlanes="1.0" oneway="1" modes="car, train" >
		</link>
		<link id="104_115" from="104" to="115" length="1000.0" freespeed="7.5" capacity="10.0" permlanes="1.0" oneway="1" modes="car, train" >
		</link>
		<link id="104_93" from="104" to="93" length="1000.0" freespeed="7.5" capacity="10.0" permlanes="1.0" oneway="1" modes="car, train" >
		</link>
		<link id="105_104" from="105" to="104" length="1000.0" freespeed="7.5" capacity="10.0" permlanes="1.0" oneway="1" modes="car, train" >
		</link>
		<link id="105_106" from="105" to="106" length="1000.0" freespeed="7.5" capacity="10.0" permlanes="1.0" oneway="1" modes="car, train" >
		</link>
		<link id="105_116" from="105" to="116" length="1000.0" freespeed="7.5" capacity="10.0" permlanes="1.0" oneway="1" modes="car" >
		</link>
		<link id="105_94" from="105" to="94" length="1000.0" freespeed="7.5" capacity="10.0" permlanes="1.0" oneway="1" modes="car" >
		</link>
		<link id="106_105" from="106" to="105" length="1000.0" freespeed="7.5" capacity="10.0" permlanes="1.0" oneway="1" modes="car, train" >
		</link>
		<link id="106_107" from="106" to="107" length="1000.0" freespeed="7.5" capacity="10.0" permlanes="1.0" oneway="1" modes="car, train" >
		</link>
		<link id="106_117" from="106" to="117" length="1000.0" freespeed="7.5" capacity="10.0" permlanes="1.0" oneway="1" modes="car, train" >
		</link>
		<link id="106_95" from="106" to="95" length="1000.0" freespeed="7.5" capacity="10.0" permlanes="1.0" oneway="1" modes="car, train" >
		</link>
		<link id="107_106" from="107" to="106" length="1000.0" freespeed="7.5" capacity="10.0" permlanes="1.0" oneway="1" modes="car, train" >
		</link>
		<link id="107_108" from="107" to="108" length="1000.0" freespeed="7.5" capacity="10.0" permlanes="1.0" oneway="1" modes="car, train" >
		</link>
		<link id="107_118" from="107" to="118" length="1000.0" freespeed="7.5" capacity="10.0" permlanes="1.0" oneway="1" modes="car" >
		</link>
		<link id="107_96" from="107" to="96" length="1000.0" freespeed="7.5" capacity="10.0" permlanes="1.0" oneway="1" modes="car" >
		</link>
		<link id="108_107" from="108" to="107" length="1000.0" freespeed="7.5" capacity="10.0" permlanes="1.0" oneway="1" modes="car, train" >
		</link>
		<link id="108_109" from="108" to="109" length="1000.0" freespeed="7.5" capacity="10.0" permlanes="1.0" oneway="1" modes="car, train" >
		</link>
		<link id="108_119" from="108" to="119" length="1000.0" freespeed="7.5" capacity="10.0" permlanes="1.0" oneway="1" modes="car, train" >
		</link>
		<link id="108_97" from="108" to="97" length="1000.0" freespeed="7.5" capacity="10.0" permlanes="1.0" oneway="1" modes="car, train" >
		</link>
		<link id="109_108" from="109" to="108" length="1000.0" freespeed="7.5" capacity="10.0" permlanes="1.0" oneway="1" modes="car, train" >
		</link>
		<link id="109_120" from="109" to="120" length="1000.0" freespeed="7.5" capacity="10.0" permlanes="1.0" oneway="1" modes="car" >
		</link>
		<link id="109_98" from="109" to="98" length="1000.0" freespeed="7.5" capacity="10.0" permlanes="1.0" oneway="1" modes="car" >
		</link>
		<link id="10_21" from="10" to="21" length="1000.0" freespeed="7.5" capacity="10.0" permlanes="1.0" oneway="1" modes="car" >
		</link>
		<link id="10_9" from="10" to="9" length="1000.0" freespeed="7.5" capacity="10.0" permlanes="1.0" oneway="1" modes="car" >
		</link>
		<link id="110_111" from="110" to="111" length="1000.0" freespeed="7.5" capacity="10.0" permlanes="1.0" oneway="1" modes="car" >
		</link>
		<link id="110_99" from="110" to="99" length="1000.0" freespeed="7.5" capacity="10.0" permlanes="1.0" oneway="1" modes="car" >
		</link>
		<link id="111_100" from="111" to="100" length="1000.0" freespeed="7.5" capacity="10.0" permlanes="1.0" oneway="1" modes="car, train" >
		</link>
		<link id="111_110" from="111" to="110" length="1000.0" freespeed="7.5" capacity="10.0" permlanes="1.0" oneway="1" modes="car" >
		</link>
		<link id="111_112" from="111" to="112" length="1000.0" freespeed="7.5" capacity="10.0" permlanes="1.0" oneway="1" modes="car" >
		</link>
		<link id="112_101" from="112" to="101" length="1000.0" freespeed="7.5" capacity="10.0" permlanes="1.0" oneway="1" modes="car" >
		</link>
		<link id="112_111" from="112" to="111" length="1000.0" freespeed="7.5" capacity="10.0" permlanes="1.0" oneway="1" modes="car" >
		</link>
		<link id="112_113" from="112" to="113" length="1000.0" freespeed="7.5" capacity="10.0" permlanes="1.0" oneway="1" modes="car" >
		</link>
		<link id="113_102" from="113" to="102" length="1000.0" freespeed="7.5" capacity="10.0" permlanes="1.0" oneway="1" modes="car, train" >
		</link>
		<link id="113_112" from="113" to="112" length="1000.0" freespeed="7.5" capacity="10.0" permlanes="1.0" oneway="1" modes="car" >
		</link>
		<link id="113_114" from="113" to="114" length="1000.0" freespeed="7.5" capacity="10.0" permlanes="1.0" oneway="1" modes="car" >
		</link>
		<link id="114_103" from="114" to="103" length="1000.0" freespeed="7.5" capacity="10.0" permlanes="1.0" oneway="1" modes="car" >
		</link>
		<link id="114_113" from="114" to="113" length="1000.0" freespeed="7.5" capacity="10.0" permlanes="1.0" oneway="1" modes="car" >
		</link>
		<link id="114_115" from="114" to="115" length="1000.0" freespeed="7.5" capacity="10.0" permlanes="1.0" oneway="1" modes="car" >
		</link>
		<link id="115_104" from="115" to="104" length="1000.0" freespeed="7.5" capacity="10.0" permlanes="1.0" oneway="1" modes="car, train" >
		</link>
		<link id="115_114" from="115" to="114" length="1000.0" freespeed="7.5" capacity="10.0" permlanes="1.0" oneway="1" modes="car" >
		</link>
		<link id="115_116" from="115" to="116" length="1000.0" freespeed="7.5" capacity="10.0" permlanes="1.0" oneway="1" modes="car" >
		</link>
		<link id="116_105" from="116" to="105" length="1000.0" freespeed="7.5" capacity="10.0" permlanes="1.0" oneway="1" modes="car" >
		</link>
		<link id="116_115" from="116" to="115" length="1000.0" freespeed="7.5" capacity="10.0" permlanes="1.0" oneway="1" modes="car" >
		</link>
		<link id="116_117" from="116" to="117" length="1000.0" freespeed="7.5" capacity="10.0" permlanes="1.0" oneway="1" modes="car" >
		</link>
		<link id="117_106" from="117" to="106" length="1000.0" freespeed="7.5" capacity="10.0" permlanes="1.0" oneway="1" modes="car, train" >
		</link>
		<link id="117_116" from="117" to="116" length="1000.0" freespeed="7.5" capacity="10.0" permlanes="1.0" oneway="1" modes="car" >
		</link>
		<link id="117_118" from="117" to="118" length="1000.0" freespeed="7.5" capacity="10.0" permlanes="1.0" oneway="1" modes="car" >
		</link>
		<link id="118_107" from="118" to="107" length="1000.0" freespeed="7.5" capacity="10.0" permlanes="1.0" oneway="1" modes="car" >
		</link>
		<link id="118_117" from="118" to="117" length="1000.0" freespeed="7.5" capacity="10.0" permlanes="1.0" oneway="1" modes="car" >
		</link>
		<link id="118_119" from="118" to="119" length="1000.0" freespeed="7.5" capacity="10.0" permlanes="1.0" oneway="1" modes="car" >
		</link>
		<link id="119_108" from="119" to="108" length="1000.0" freespeed="7.5" capacity="10.0" permlanes="1.0" oneway="1" modes="car, train" >
		</link>
		<link id="119_118" from="119" to="118" length="1000.0" freespeed="7.5" capacity="10.0" permlanes="1.0" oneway="1" modes="car" >
		</link>
		<link id="119_120" from="119" to="120" length="1000.0" freespeed="7.5" capacity="10.0" permlanes="1.0" oneway="1" modes="car" >
		</link>
		<link id="11_0" from="11" to="0" length="1000.0" freespeed="7.5" capacity="10.0" permlanes="1.0" oneway="1" modes="car" >
		</link>
		<link id="11_12" from="11" to="12" length="1000.0" freespeed="7.5" capacity="10.0" permlanes="1.0" oneway="1" modes="car, train" >
		</link>
		<link id="11_22" from="11" to="22" length="1000.0" freespeed="7.5" capacity="10.0" permlanes="1.0" oneway="1" modes="car" >
		</link>
		<link id="120_109" from="120" to="109" length="1000.0" freespeed="7.5" capacity="10.0" permlanes="1.0" oneway="1" modes="car" >
		</link>
		<link id="120_119" from="120" to="119" length="1000.0" freespeed="7.5" capacity="10.0" permlanes="1.0" oneway="1" modes="car" >
		</link>
		<link id="12_1" from="12" to="1" length="1000.0" freespeed="7.5" capacity="10.0" permlanes="1.0" oneway="1" modes="car, train" >
		</link>
		<link id="12_11" from="12" to="11" length="1000.0" freespeed="7.5" capacity="10.0" permlanes="1.0" oneway="1" modes="car, train" >
		</link>
		<link id="12_13" from="12" to="13" length="1000.0" freespeed="7.5" capacity="10.0" permlanes="1.0" oneway="1" modes="car, train" >
		</link>
		<link id="12_23" from="12" to="23" length="1000.0" freespeed="7.5" capacity="10.0" permlanes="1.0" oneway="1" modes="car, train" >
		</link>
		<link id="13_12" from="13" to="12" length="1000.0" freespeed="7.5" capacity="10.0" permlanes="1.0" oneway="1" modes="car, train" >
		</link>
		<link id="13_14" from="13" to="14" length="1000.0" freespeed="7.5" capacity="10.0" permlanes="1.0" oneway="1" modes="car, train" >
		</link>
		<link id="13_2" from="13" to="2" length="1000.0" freespeed="7.5" capacity="10.0" permlanes="1.0" oneway="1" modes="car" >
		</link>
		<link id="13_24" from="13" to="24" length="1000.0" freespeed="7.5" capacity="10.0" permlanes="1.0" oneway="1" modes="car" >
		</link>
		<link id="14_13" from="14" to="13" length="1000.0" freespeed="7.5" capacity="10.0" permlanes="1.0" oneway="1" modes="car, train" >
		</link>
		<link id="14_15" from="14" to="15" length="1000.0" freespeed="7.5" capacity="10.0" permlanes="1.0" oneway="1" modes="car, train" >
		</link>
		<link id="14_25" from="14" to="25" length="1000.0" freespeed="7.5" capacity="10.0" permlanes="1.0" oneway="1" modes="car, train" >
		</link>
		<link id="14_3" from="14" to="3" length="1000.0" freespeed="7.5" capacity="10.0" permlanes="1.0" oneway="1" modes="car, train" >
		</link>
		<link id="15_14" from="15" to="14" length="1000.0" freespeed="7.5" capacity="10.0" permlanes="1.0" oneway="1" modes="car, train" >
		</link>
		<link id="15_16" from="15" to="16" length="1000.0" freespeed="7.5" capacity="10.0" permlanes="1.0" oneway="1" modes="car, train" >
		</link>
		<link id="15_26" from="15" to="26" length="1000.0" freespeed="7.5" capacity="10.0" permlanes="1.0" oneway="1" modes="car" >
		</link>
		<link id="15_4" from="15" to="4" length="1000.0" freespeed="7.5" capacity="10.0" permlanes="1.0" oneway="1" modes="car" >
		</link>
		<link id="16_15" from="16" to="15" length="1000.0" freespeed="7.5" capacity="10.0" permlanes="1.0" oneway="1" modes="car, train" >
		</link>
		<link id="16_17" from="16" to="17" length="1000.0" freespeed="7.5" capacity="10.0" permlanes="1.0" oneway="1" modes="car, train" >
		</link>
		<link id="16_27" from="16" to="27" length="1000.0" freespeed="7.5" capacity="10.0" permlanes="1.0" oneway="1" modes="car, train" >
		</link>
		<link id="16_5" from="16" to="5" length="1000.0" freespeed="7.5" capacity="10.0" permlanes="1.0" oneway="1" modes="car, train" >
		</link>
		<link id="17_16" from="17" to="16" length="1000.0" freespeed="7.5" capacity="10.0" permlanes="1.0" oneway="1" modes="car, train" >
		</link>
		<link id="17_18" from="17" to="18" length="1000.0" freespeed="7.5" capacity="10.0" permlanes="1.0" oneway="1" modes="car, train" >
		</link>
		<link id="17_28" from="17" to="28" length="1000.0" freespeed="7.5" capacity="10.0" permlanes="1.0" oneway="1" modes="car" >
		</link>
		<link id="17_6" from="17" to="6" length="1000.0" freespeed="7.5" capacity="10.0" permlanes="1.0" oneway="1" modes="car" >
		</link>
		<link id="18_17" from="18" to="17" length="1000.0" freespeed="7.5" capacity="10.0" permlanes="1.0" oneway="1" modes="car, train" >
		</link>
		<link id="18_19" from="18" to="19" length="1000.0" freespeed="7.5" capacity="10.0" permlanes="1.0" oneway="1" modes="car, train" >
		</link>
		<link id="18_29" from="18" to="29" length="1000.0" freespeed="7.5" capacity="10.0" permlanes="1.0" oneway="1" modes="car, train" >
		</link>
		<link id="18_7" from="18" to="7" length="1000.0" freespeed="7.5" capacity="10.0" permlanes="1.0" oneway="1" modes="car, train" >
		</link>
		<link id="19_18" from="19" to="18" length="1000.0" freespeed="7.5" capacity="10.0" permlanes="1.0" oneway="1" modes="car, train" >
		</link>
		<link id="19_20" from="19" to="20" length="1000.0" freespeed="7.5" capacity="10.0" permlanes="1.0" oneway="1" modes="car, train" >
		</link>
		<link id="19_30" from="19" to="30" length="1000.0" freespeed="7.5" capacity="10.0" permlanes="1.0" oneway="1" modes="car" >
		</link>
		<link id="19_8" from="19" to="8" length="1000.0" freespeed="7.5" capacity="10.0" permlanes="1.0" oneway="1" modes="car" >
		</link>
		<link id="1_0" from="1" to="0" length="1000.0" freespeed="7.5" capacity="10.0" permlanes="1.0" oneway="1" modes="car" >
		</link>
		<link id="1_12" from="1" to="12" length="1000.0" freespeed="7.5" capacity="10.0" permlanes="1.0" oneway="1" modes="car, train" >
		</link>
		<link id="1_2" from="1" to="2" length="1000.0" freespeed="7.5" capacity="10.0" permlanes="1.0" oneway="1" modes="car" >
		</link>
		<link id="20_19" from="20" to="19" length="1000.0" freespeed="7.5" capacity="10.0" permlanes="1.0" oneway="1" modes="car, train" >
		</link>
		<link id="20_21" from="20" to="21" length="1000.0" freespeed="7.5" capacity="10.0" permlanes="1.0" oneway="1" modes="car, train" >
		</link>
		<link id="20_31" from="20" to="31" length="1000.0" freespeed="7.5" capacity="10.0" permlanes="1.0" oneway="1" modes="car, train" >
		</link>
		<link id="20_9" from="20" to="9" length="1000.0" freespeed="7.5" capacity="10.0" permlanes="1.0" oneway="1" modes="car, train" >
		</link>
		<link id="21_10" from="21" to="10" length="1000.0" freespeed="7.5" capacity="10.0" permlanes="1.0" oneway="1" modes="car" >
		</link>
		<link id="21_20" from="21" to="20" length="1000.0" freespeed="7.5" capacity="10.0" permlanes="1.0" oneway="1" modes="car, train" >
		</link>
		<link id="21_32" from="21" to="32" length="1000.0" freespeed="7.5" capacity="10.0" permlanes="1.0" oneway="1" modes="car" >
		</link>
		<link id="22_11" from="22" to="11" length="1000.0" freespeed="7.5" capacity="10.0" permlanes="1.0" oneway="1" modes="car" >
		</link>
		<link id="22_23" from="22" to="23" length="1000.0" freespeed="7.5" capacity="10.0" permlanes="1.0" oneway="1" modes="car" >
		</link>
		<link id="22_33" from="22" to="33" length="1000.0" freespeed="7.5" capacity="10.0" permlanes="1.0" oneway="1" modes="car" >
		</link>
		<link id="23_12" from="23" to="12" length="1000.0" freespeed="7.5" capacity="10.0" permlanes="1.0" oneway="1" modes="car, train" >
		</link>
		<link id="23_22" from="23" to="22" length="1000.0" freespeed="7.5" capacity="10.0" permlanes="1.0" oneway="1" modes="car" >
		</link>
		<link id="23_24" from="23" to="24" length="1000.0" freespeed="7.5" capacity="10.0" permlanes="1.0" oneway="1" modes="car" >
		</link>
		<link id="23_34" from="23" to="34" length="1000.0" freespeed="7.5" capacity="10.0" permlanes="1.0" oneway="1" modes="car, train" >
		</link>
		<link id="24_13" from="24" to="13" length="1000.0" freespeed="7.5" capacity="10.0" permlanes="1.0" oneway="1" modes="car" >
		</link>
		<link id="24_23" from="24" to="23" length="1000.0" freespeed="7.5" capacity="10.0" permlanes="1.0" oneway="1" modes="car" >
		</link>
		<link id="24_25" from="24" to="25" length="1000.0" freespeed="7.5" capacity="10.0" permlanes="1.0" oneway="1" modes="car" >
		</link>
		<link id="24_35" from="24" to="35" length="1000.0" freespeed="7.5" capacity="10.0" permlanes="1.0" oneway="1" modes="car" >
		</link>
		<link id="25_14" from="25" to="14" length="1000.0" freespeed="7.5" capacity="10.0" permlanes="1.0" oneway="1" modes="car, train" >
		</link>
		<link id="25_24" from="25" to="24" length="1000.0" freespeed="7.5" capacity="10.0" permlanes="1.0" oneway="1" modes="car" >
		</link>
		<link id="25_26" from="25" to="26" length="1000.0" freespeed="7.5" capacity="10.0" permlanes="1.0" oneway="1" modes="car" >
		</link>
		<link id="25_36" from="25" to="36" length="1000.0" freespeed="7.5" capacity="10.0" permlanes="1.0" oneway="1" modes="car, train" >
		</link>
		<link id="26_15" from="26" to="15" length="1000.0" freespeed="7.5" capacity="10.0" permlanes="1.0" oneway="1" modes="car" >
		</link>
		<link id="26_25" from="26" to="25" length="1000.0" freespeed="7.5" capacity="10.0" permlanes="1.0" oneway="1" modes="car" >
		</link>
		<link id="26_27" from="26" to="27" length="1000.0" freespeed="7.5" capacity="10.0" permlanes="1.0" oneway="1" modes="car" >
		</link>
		<link id="26_37" from="26" to="37" length="1000.0" freespeed="7.5" capacity="10.0" permlanes="1.0" oneway="1" modes="car" >
		</link>
		<link id="27_16" from="27" to="16" length="1000.0" freespeed="7.5" capacity="10.0" permlanes="1.0" oneway="1" modes="car, train" >
		</link>
		<link id="27_26" from="27" to="26" length="1000.0" freespeed="7.5" capacity="10.0" permlanes="1.0" oneway="1" modes="car" >
		</link>
		<link id="27_28" from="27" to="28" length="1000.0" freespeed="7.5" capacity="10.0" permlanes="1.0" oneway="1" modes="car" >
		</link>
		<link id="27_38" from="27" to="38" length="1000.0" freespeed="7.5" capacity="10.0" permlanes="1.0" oneway="1" modes="car, train" >
		</link>
		<link id="28_17" from="28" to="17" length="1000.0" freespeed="7.5" capacity="10.0" permlanes="1.0" oneway="1" modes="car" >
		</link>
		<link id="28_27" from="28" to="27" length="1000.0" freespeed="7.5" capacity="10.0" permlanes="1.0" oneway="1" modes="car" >
		</link>
		<link id="28_29" from="28" to="29" length="1000.0" freespeed="7.5" capacity="10.0" permlanes="1.0" oneway="1" modes="car" >
		</link>
		<link id="28_39" from="28" to="39" length="1000.0" freespeed="7.5" capacity="10.0" permlanes="1.0" oneway="1" modes="car" >
		</link>
		<link id="29_18" from="29" to="18" length="1000.0" freespeed="7.5" capacity="10.0" permlanes="1.0" oneway="1" modes="car, train" >
		</link>
		<link id="29_28" from="29" to="28" length="1000.0" freespeed="7.5" capacity="10.0" permlanes="1.0" oneway="1" modes="car" >
		</link>
		<link id="29_30" from="29" to="30" length="1000.0" freespeed="7.5" capacity="10.0" permlanes="1.0" oneway="1" modes="car" >
		</link>
		<link id="29_40" from="29" to="40" length="1000.0" freespeed="7.5" capacity="10.0" permlanes="1.0" oneway="1" modes="car, train" >
		</link>
		<link id="2_1" from="2" to="1" length="1000.0" freespeed="7.5" capacity="10.0" permlanes="1.0" oneway="1" modes="car" >
		</link>
		<link id="2_13" from="2" to="13" length="1000.0" freespeed="7.5" capacity="10.0" permlanes="1.0" oneway="1" modes="car" >
		</link>
		<link id="2_3" from="2" to="3" length="1000.0" freespeed="7.5" capacity="10.0" permlanes="1.0" oneway="1" modes="car" >
		</link>
		<link id="30_19" from="30" to="19" length="1000.0" freespeed="7.5" capacity="10.0" permlanes="1.0" oneway="1" modes="car" >
		</link>
		<link id="30_29" from="30" to="29" length="1000.0" freespeed="7.5" capacity="10.0" permlanes="1.0" oneway="1" modes="car" >
		</link>
		<link id="30_31" from="30" to="31" length="1000.0" freespeed="7.5" capacity="10.0" permlanes="1.0" oneway="1" modes="car" >
		</link>
		<link id="30_41" from="30" to="41" length="1000.0" freespeed="7.5" capacity="10.0" permlanes="1.0" oneway="1" modes="car" >
		</link>
		<link id="31_20" from="31" to="20" length="1000.0" freespeed="7.5" capacity="10.0" permlanes="1.0" oneway="1" modes="car, train" >
		</link>
		<link id="31_30" from="31" to="30" length="1000.0" freespeed="7.5" capacity="10.0" permlanes="1.0" oneway="1" modes="car" >
		</link>
		<link id="31_32" from="31" to="32" length="1000.0" freespeed="7.5" capacity="10.0" permlanes="1.0" oneway="1" modes="car" >
		</link>
		<link id="31_42" from="31" to="42" length="1000.0" freespeed="7.5" capacity="10.0" permlanes="1.0" oneway="1" modes="car, train" >
		</link>
		<link id="32_21" from="32" to="21" length="1000.0" freespeed="7.5" capacity="10.0" permlanes="1.0" oneway="1" modes="car" >
		</link>
		<link id="32_31" from="32" to="31" length="1000.0" freespeed="7.5" capacity="10.0" permlanes="1.0" oneway="1" modes="car" >
		</link>
		<link id="32_43" from="32" to="43" length="1000.0" freespeed="7.5" capacity="10.0" permlanes="1.0" oneway="1" modes="car" >
		</link>
		<link id="33_22" from="33" to="22" length="1000.0" freespeed="7.5" capacity="10.0" permlanes="1.0" oneway="1" modes="car" >
		</link>
		<link id="33_34" from="33" to="34" length="1000.0" freespeed="7.5" capacity="10.0" permlanes="1.0" oneway="1" modes="car, train" >
		</link>
		<link id="33_44" from="33" to="44" length="1000.0" freespeed="7.5" capacity="10.0" permlanes="1.0" oneway="1" modes="car" >
		</link>
		<link id="34_23" from="34" to="23" length="1000.0" freespeed="7.5" capacity="10.0" permlanes="1.0" oneway="1" modes="car, train" >
		</link>