<?xml version="1.0" encoding="UTF-8"?>
<!DOCTYPE transitSchedule SYSTEM "http://www.matsim.org/files/dtd/transitSchedule_v2.dtd">

<transitSchedule>

	<transitStops>
		<stopFacility id="0" x="1000.0" y="0.0" linkRefId="11_12" isBlocking="false"/>
		<stopFacility id="1" x="1000.0" y="1000.0" linkRefId="12_13" isBlocking="false"/>
		<stopFacility id="10" x="1000.0" y="10000.0" linkRefId="21_20" isBlocking="false"/>
		<stopFacility id="100" x="0.0" y="1000.0" linkRefId="1_12" isBlocking="false"/>
		<stopFacility id="101" x="1000.0" y="1000.0" linkRefId="12_23" isBlocking="false"/>
		<stopFacility id="102" x="2000.0" y="1000.0" linkRefId="23_34" isBlocking="false"/>
		<stopFacility id="103" x="3000.0" y="1000.0" linkRefId="34_45" isBlocking="false"/>
		<stopFacility id="104" x="4000.0" y="1000.0" linkRefId="45_56" isBlocking="false"/>
		<stopFacility id="105" x="5000.0" y="1000.0" linkRefId="56_67" isBlocking="false"/>
		<stopFacility id="106" x="6000.0" y="1000.0" linkRefId="67_78" isBlocking="false"/>
		<stopFacility id="107" x="7000.0" y="1000.0" linkRefId="78_89" isBlocking="false"/>
		<stopFacility id="108" x="8000.0" y="1000.0" linkRefId="89_100" isBlocking="false"/>
		<stopFacility id="109" x="9000.0" y="1000.0" linkRefId="100_111" isBlocking="false"/>
		<stopFacility id="11" x="1000.0" y="9000.0" linkRefId="20_19" isBlocking="false"/>
		<stopFacility id="110" x="10000.0" y="1000.0" linkRefId="111_100" isBlocking="false"/>
		<stopFacility id="111" x="9000.0" y="1000.0" linkRefId="100_89" isBlocking="false"/>
		<stopFacility id="112" x="8000.0" y="1000.0" linkRefId="89_78" isBlocking="false"/>
		<stopFacility id="113" x="7000.0" y="1000.0" linkRefId="78_67" isBlocking="false"/>
		<stopFacility id="114" x="6000.0" y="1000.0" linkRefId="67_56" isBlocking="false"/>
		<stopFacility id="115" x="5000.0" y="1000.0" linkRefId="56_45" isBlocking="false"/>
		<stopFacility id="116" x="4000.0" y="1000.0" linkRefId="45_34" isBlocking="false"/>
		<stopFacility id="117" x="3000.0" y="1000.0" linkRefId="34_23" isBlocking="false"/>
		<stopFacility id="118" x="2000.0" y="1000.0" linkRefId="23_12" isBlocking="false"/>
		<stopFacility id="119" x="1000.0" y="1000.0" linkRefId="12_1" isBlocking="false"/>
		<stopFacility id="12" x="1000.0" y="8000.0" linkRefId="19_18" isBlocking="false"/>
		<stopFacility id="120" x="0.0" y="3000.0" linkRefId="3_14" isBlocking="false"/>
		<stopFacility id="121" x="1000.0" y="3000.0" linkRefId="14_25" isBlocking="false"/>
		<stopFacility id="122" x="2000.0" y="3000.0" linkRefId="25_36" isBlocking="false"/>
		<stopFacility id="123" x="3000.0" y="3000.0" linkRefId="36_47" isBlocking="false"/>
		<stopFacility id="124" x="4000.0" y="3000.0" linkRefId="47_58" isBlocking="false"/>
		<stopFacility id="125" x="5000.0" y="3000.0" linkRefId="58_69" isBlocking="false"/>
		<stopFacility id="126" x="6000.0" y="3000.0" linkRefId="69_80" isBlocking="false"/>
		<stopFacility id="127" x="7000.0" y="3000.0" linkRefId="80_91" isBlocking="false"/>
		<stopFacility id="128" x="8000.0" y="3000.0" linkRefId="91_102" isBlocking="false"/>
		<stopFacility id="129" x="9000.0" y="3000.0" linkRefId="102_113" isBlocking="false"/>
		<stopFacility id="13" x="1000.0" y="7000.0" linkRefId="18_17" isBlocking="false"/>
		<stopFacility id="130" x="10000.0" y="3000.0" linkRefId="113_102" isBlocking="false"/>
		<stopFacility id="131" x="9000.0" y="3000.0" linkRefId="102_91" isBlocking="false"/>
		<stopFacility id="132" x="8000.0" y="3000.0" linkRefId="91_80" isBlocking="false"/>
		<stopFacility id="133" x="7000.0" y="3000.0" linkRefId="80_69" isBlocking="false"/>
		<stopFacility id="134" x="6000.0" y="3000.0" linkRefId="69_58" isBlocking="false"/>
		<stopFacility id="135" x="5000.0" y="3000.0" linkRefId="58_47" isBlocking="false"/>
		<stopFacility id="136" x="4000.0" y="3000.0" linkRefId="47_36" isBlocking="false"/>
		<stopFacility id="137" x="3000.0" y="3000.0" linkRefId="36_25" isBlocking="false"/>
		<stopFacility id="138" x="2000.0" y="3000.0" linkRefId="25_14" isBlocking="false"/>
		<stopFacility id="139" x="1000.0" y="3000.0" linkRefId="14_3" isBlocking="false"/>
		<stopFacility id="14" x="1000.0" y="6000.0" linkRefId="17_16" isBlocking="false"/>
		<stopFacility id="140" x="0.0" y="5000.0" linkRefId="5_16" isBlocking="false"/>
		<stopFacility id="141" x="1000.0" y="5000.0" linkRefId="16_27" isBlocking="false"/>
		<stopFacility id="142" x="2000.0" y="5000.0" linkRefId="27_38" isBlocking="false"/>
		<stopFacility id="143" x="3000.0" y="5000.0" linkRefId="38_49" isBlocking="false"/>
		<stopFacility id="144" x="4000.0" y="5000.0" linkRefId="49_60" isBlocking="false"/>
		<stopFacility id="145" x="5000.0" y="5000.0" linkRefId="60_71" isBlocking="false"/>
		<stopFacility id="146" x="6000.0" y="5000.0" linkRefId="71_82" isBlocking="false"/>
		<stopFacility id="147" x="7000.0" y="5000.0" linkRefId="82_93" isBlocking="false"/>
		<stopFacility id="148" x="8000.0" y="5000.0" linkRefId="93_104" isBlocking="false"/>
		<stopFacility id="149" x="9000.0" y="5000.0" linkRefId="104_115" isBlocking="false"/>
		<stopFacility id="15" x="1000.0" y="5000.0" linkRefId="16_15" isBlocking="false"/>
		<stopFacility id="150" x="10000.0" y="5000.0" linkRefId="115_104" isBlocking="false"/>
		<stopFacility id="151" x="9000.0" y="5000.0" linkRefId="104_93" isBlocking="false"/>
		<stopFacility id="152" x="8000.0" y="5000.0" linkRefId="93_82" isBlocking="false"/>
		<stopFacility id="153" x="7000.0" y="5000.0" linkRefId="82_71" isBlocking="false"/>
		<stopFacility id="154" x="6000.0" y="5000.0" linkRefId="71_60" isBlocking="false"/>
		<stopFacility id="155" x="5000.0" y="5000.0" linkRefId="60_49" isBlocking="false"/>
		<stopFacility id="156" x="4000.0" y="5000.0" linkRefId="49_38" isBlocking="false"/>
		<stopFacility id="157" x="3000.0" y="5000.0" linkRefId="38_27" isBlocking="false"/>
		<stopFacility id="158" x="2000.0" y="5000.0" linkRefId="27_16" isBlocking="false"/>
		<stopFacility id="159" x="1000.0" y="5000.0" linkRefId="16_5" isBlocking="false"/>
		<stopFacility id="16" x="1000.0" y="4000.0" linkRefId="15_14" isBlocking="false"/>
		<stopFacility id="160" x="0.0" y="7000.0" linkRefId="7_18" isBlocking="false"/>
		<stopFacility id="161" x="1000.0" y="7000.0" linkRefId="18_29" isBlocking="false"/>
		<stopFacility id="162" x="2000.0" y="7000.0" linkRefId="29_40" isBlocking="false"/>
		<stopFacility id="163" x="3000.0" y="7000.0" linkRefId="40_51" isBlocking="false"/>
		<stopFacility id="164" x="4000.0" y="7000.0" linkRefId="51_62" isBlocking="false"/>
		<stopFacility id="165" x="5000.0" y="7000.0" linkRefId="62_73" isBlocking="false"/>
		<stopFacility id="166" x="6000.0" y="7000.0" linkRefId="73_84" isBlocking="false"/>
		<stopFacility id="167" x="7000.0" y="7000.0" linkRefId="84_95" isBlocking="false"/>
		<stopFacility id="168" x="8000.0" y="7000.0" linkRefId="95_106" isBlocking="false"/>
		<stopFacility id="169" x="9000.0" y="7000.0" linkRefId="106_117" isBlocking="false"/>
		<stopFacility id="17" x="1000.0" y="3000.0" linkRefId="14_13" isBlocking="false"/>
		<stopFacility id="170" x="10000.0" y="7000.0" linkRefId="117_106" isBlocking="false"/>
		<stopFacility id="171" x="9000.0" y="7000.0" linkRefId="106_95" isBlocking="false"/>
		<stopFacility id="172" x="8000.0" y="7000.0" linkRefId="95_84" isBlocking="false"/>
		<stopFacility id="173" x="7000.0" y="7000.0" linkRefId="84_73" isBlocking="false"/>
		<stopFacility id="174" x="6000.0" y="7000.0" linkRefId="73_62" isBlocking="false"/>
		<stopFacility id="175" x="5000.0" y="7000.0" linkRefId="62_51" isBlocking="false"/>
		<stopFacility id="176" x="4000.0" y="7000.0" linkRefId="51_40" isBlocking="false"/>
		<stopFacility id="177" x="3000.0" y="7000.0" linkRefId="40_29" isBlocking="false"/>
		<stopFacility id="178" x="2000.0" y="7000.0" linkRefId="29_18" isBlocking="false"/>
		<stopFacility id="179" x="1000.0" y="7000.0" linkRefId="18_7" isBlocking="false"/>
		<stopFacility id="18" x="1000.0" y="2000.0" linkRefId="13_12" isBlocking="false"/>
		<stopFacility id="180" x="0.0" y="9000.0" linkRefId="9_20" isBlocking="false"/>
		<stopFacility id="181" x="1000.0" y="9000.0" linkRefId="20_31" isBlocking="false"/>
		<stopFacility id="182" x="2000.0" y="9000.0" linkRefId="31_42" isBlocking="false"/>
		<stopFacility id="183" x="3000.0" y="9000.0" linkRefId="42_53" isBlocking="false"/>
		<stopFacility id="184" x="4000.0" y="9000.0" linkRefId="53_64" isBlocking="false"/>
		<stopFacility id="185" x="5000.0" y="9000.0" linkRefId="64_75" isBlocking="false"/>
		<stopFacility id="186" x="6000.0" y="9000.0" linkRefId="75_86" isBlocking="false"/>
		<stopFacility id="187" x="7000.0" y="9000.0" linkRefId="86_97" isBlocking="false"/>
		<stopFacility id="188" x="8000.0" y="9000.0" linkRefId="97_108" isBlocking="false"/>
		<stopFacility id="189" x="9000.0" y="9000.0" linkRefId="108_119" isBlocking="false"/>
		<stopFacility id="19" x="1000.0" y="1000.0" linkRefId="12_11" isBlocking="false"/>
		<stopFacility id="190" x="10000.0" y="9000.0" linkRefId="119_108" isBlocking="false"/>
		<stopFacility id="191" x="9000.0" y="9000.0" linkRefId="108_97" isBlocking="false"/>
		<stopFacility id="192" x="8000.0" y="9000.0" linkRefId="97_86" isBlocking="false"/>
		<stopFacility id="193" x="7000.0" y="9000.0" linkRefId="86_75" isBlocking="false"/>
		<stopFacility id="194" x="6000.0" y="9000.0" linkRefId="75_64" isBlocking="false"/>
		<stopFacility id="195" x="5000.0" y="9000.0" linkRefId="64_53" isBlocking="false"/>
		<stopFacility id="196" x="4000.0" y="9000.0" linkRefId="53_42" isBlocking="false"/>
		<stopFacility id="197" x="3000.0" y="9000.0" linkRefId="42_31" isBlocking="false"/>
		<stopFacility id="198" x="2000.0" y="9000.0" linkRefId="31_20" isBlocking="false"/>
		<stopFacility id="199" x="1000.0" y="9000.0" linkRefId="20_9" isBlocking="false"/>
		<stopFacility id="2" x="1000.0" y="2000.0" linkRefId="13_14" isBlocking="false"/>
		<stopFacility id="20" x="3000.0" y="0.0" linkRefId="33_34" isBlocking="false"/>
		<stopFacility id="21" x="3000.0" y="1000.0" linkRefId="34_35" isBlocking="false"/>
		<stopFacility id="22" x="3000.0" y="2000.0" linkRefId="35_36" isBlocking="false"/>
		<stopFacility id="23" x="3000.0" y="3000.0" linkRefId="36_37" isBlocking="false"/>
		<stopFacility id="24" x="3000.0" y="4000.0" linkRefId="37_38" isBlocking="false"/>
		<stopFacility id="25" x="3000.0" y="5000.0" linkRefId="38_39" isBlocking="false"/>
		<stopFacility id="26" x="3000.0" y="6000.0" linkRefId="39_40" isBlocking="false"/>
		<stopFacility id="27" x="3000.0" y="7000.0" linkRefId="40_41" isBlocking="false"/>
		<stopFacility id="28" x="3000.0" y="8000.0" linkRefId="41_42" isBlocking="false"/>
		<stopFacility id="29" x="3000.0" y="9000.0" linkRefId="42_43" isBlocking="false"/>
		<stopFacility id="3" x="1000.0" y="3000.0" linkRefId="14_15" isBlocking="false"/>
		<stopFacility id="30" x="3000.0" y="10000.0" linkRefId="43_42" isBlocking="false"/>
		<stopFacility id="31" x="3000.0" y="9000.0" linkRefId="42_41" isBlocking="false"/>
		<stopFacility id="32" x="3000.0" y="8000.0" linkRefId="41_40" isBlocking="false"/>
		<stopFacility id="33" x="3000.0" y="7000.0" linkRefId="40_39" isBlocking="false"/>
		<stopFacility id="34" x="3000.0" y="6000.0" linkRefId="39_38" isBlocking="false"/>
		<stopFacility id="35" x="3000.0" y="5000.0" linkRefId="38_37" isBlocking="false"/>
		<stopFacility id="36" x="3000.0" y="4000.0" linkRefId="37_36" isBlocking="false"/>
		<stopFacility id="37" x="3000.0" y="3000.0" linkRefId="36_35" isBlocking="false"/>
		<stopFacility id="38" x="3000.0" y="2000.0" linkRefId="35_34" isBlocking="false"/>
		<stopFacility id="39" x="3000.0" y="1000.0" linkRefId="34_33" isBlocking="false"/>
		<stopFacility id="4" x="1000.0" y="4000.0" linkRefId="15_16" isBlocking="false"/>
		<stopFacility id="40" x="5000.0" y="0.0" linkRefId="55_56" isBlocking="false"/>
		<stopFacility id="41" x="5000.0" y="1000.0" linkRefId="56_57" isBlocking="false"/>
		<stopFacility id="42" x="5000.0" y="2000.0" linkRefId="57_58" isBlocking="false"/>
		<stopFacility id="43" x="5000.0" y="3000.0" linkRefId="58_59" isBlocking="false"/>
		<stopFacility id="44" x="5000.0" y="4000.0" linkRefId="59_60" isBlocking="false"/>
		<stopFacility id="45" x="5000.0" y="5000.0" linkRefId="60_61" isBlocking="false"/>
		<stopFacility id="46" x="5000.0" y="6000.0" linkRefId="61_62" isBlocking="false"/>
		<stopFacility id="47" x="5000.0" y="7000.0" linkRefId="62_63" isBlocking="false"/>
		<stopFacility id="48" x="5000.0" y="8000.0" linkRefId="63_64" isBlocking="false"/>
		<stopFacility id="49" x="5000.0" y="9000.0" linkRefId="64_65" isBlocking="false"/>
		<stopFacility id="5" x="1000.0" y="5000.0" linkRefId="16_17" isBlocking="false"/>
		<stopFacility id="50" x="5000.0" y="10000.0" linkRefId="65_64" isBlocking="false"/>
		<stopFacility id="51" x="5000.0" y="9000.0" linkRefId="64_63" isBlocking="false"/>
		<stopFacility id="52" x="5000.0" y="8000.0" linkRefId="63_62" isBlocking="false"/>
		<stopFacility id="53" x="5000.0" y="7000.0" linkRefId="62_61" isBlocking="false"/>
		<stopFacility id="54" x="5000.0" y="6000.0" linkRefId="61_60" isBlocking="false"/>
		<stopFacility id="55" x="5000.0" y="5000.0" linkRefId="60_59" isBlocking="false"/>
		<stopFacility id="56" x="5000.0" y="4000.0" linkRefId="59_58" isBlocking="false"/>
		<stopFacility id="57" x="5000.0" y="3000.0" linkRefId="58_57" isBlocking="false"/>
		<stopFacility id="58" x="5000.0" y="2000.0" linkRefId="57_56" isBlocking="false"/>
		<stopFacility id="59" x="5000.0" y="1000.0" linkRefId="56_55" isBlocking="false"/>
		<stopFacility id="6" x="1000.0" y="6000.0" linkRefId="17_18" isBlocking="false"/>
		<stopFacility id="60" x="7000.0" y="0.0" linkRefId="77_78" isBlocking="false"/>
		<stopFacility id="61" x="7000.0" y="1000.0" linkRefId="78_79" isBlocking="false"/>
		<stopFacility id="62" x="7000.0" y="2000.0" linkRefId="79_80" isBlocking="false"/>
		<stopFacility id="63" x="7000.0" y="3000.0" linkRefId="80_81" isBlocking="false"/>
		<stopFacility id="64" x="7000.0" y="4000.0" linkRefId="81_82" isBlocking="false"/>
		<stopFacility id="65" x="7000.0" y="5000.0" linkRefId="82_83" isBlocking="false"/>
		<stopFacility id="66" x="7000.0" y="6000.0" linkRefId="83_84" isBlocking="false"/>
		<stopFacility id="67" x="7000.0" y="7000.0" linkRefId="84_85" isBlocking="false"/>
		<stopFacility id="68" x="7000.0" y="8000.0" linkRefId="85_86" isBlocking="false"/>
		<stopFacility id="69" x="7000.0" y="9000.0" linkRefId="86_87" isBlocking="false"/>
		<stopFacility id="7" x="1000.0" y="7000.0" linkRefId="18_19" isBlocking="false"/>
		<stopFacility id="70" x="7000.0" y="10000.0" linkRefId="87_86" isBlocking="false"/>
		<stopFacility id="71" x="7000.0" y="9000.0" linkRefId="86_85" isBlocking="false"/>
		<stopFacility id="72" x="7000.0" y="8000.0" linkRefId="85_84" isBlocking="false"/>
		<stopFacility id="73" x="7000.0" y="7000.0" linkRefId="84_83" isBlocking="false"/>
		<stopFacility id="74" x="7000.0" y="6000.0" linkRefId="83_82" isBlocking="false"/>
		<stopFacility id="75" x="7000.0" y="5000.0" linkRefId="82_81" isBlocking="false"/>
		<stopFacility id="76" x="7000.0" y="4000.0" linkRefId="81_80" isBlocking="false"/>
		<stopFacility id="77" x="7000.0" y="3000.0" linkRefId="80_79" isBlocking="false"/>
		<stopFacility id="78" x="7000.0" y="2000.0" linkRefId="79_78" isBlocking="false"/>
		<stopFacility id="79" x="7000.0" y="1000.0" linkRefId="78_77" isBlocking="false"/>
		<stopFacility id="8" x="1000.0" y="8000.0" linkRefId="19_20" isBlocking="false"/>
		<stopFacility id="80" x="9000.0" y="0.0" linkRefId="99_100" isBlocking="false"/>
		<stopFacility id="81" x="9000.0" y="1000.0" linkRefId="100_101" isBlocking="false"/>
		<stopFacility id="82" x="9000.0" y="2000.0" linkRefId="101_102" isBlocking="false"/>
		<stopFacility id="83" x="9000.0" y="3000.0" linkRefId="102_103" isBlocking="false"/>
		<stopFacility id="84" x="9000.0" y="4000.0" linkRefId="103_104" isBlocking="false"/>
		<stopFacility id="85" x="9000.0" y="5000.0" linkRefId="104_105" isBlocking="false"/>
		<stopFacility id="86" x="9000.0" y="6000.0" linkRefId="105_106" isBlocking="false"/>
		<stopFacility id="87" x="9000.0" y="7000.0" linkRefId="106_107" isBlocking="false"/>
		<stopFacility id="88" x="9000.0" y="8000.0" linkRefId="107_108" isBlocking="false"/>
		<stopFacility id="89" x="9000.0" y="9000.0" linkRefId="108_109" isBlocking="false"/>
		<stopFacility id="9" x="1000.0" y="9000.0" linkRefId="20_21" isBlocking="false"/>
		<stopFacility id="90" x="9000.0" y="10000.0" linkRefId="109_108" isBlocking="false"/>
		<stopFacility id="91" x="9000.0" y="9000.0" linkRefId="108_107" isBlocking="false"/>
		<stopFacility id="92" x="9000.0" y="8000.0" linkRefId="107_106" isBlocking="false"/>
		<stopFacility id="93" x="9000.0" y="7000.0" linkRefId="106_105" isBlocking="false"/>
		<stopFacility id="94" x="9000.0" y="6000.0" linkRefId="105_104" isBlocking="false"/>
		<stopFacility id="95" x="9000.0" y="5000.0" linkRefId="104_103" isBlocking="false"/>
		<stopFacility id="96" x="9000.0" y="4000.0" linkRefId="103_102" isBlocking="false"/>
		<stopFacility id="97" x="9000.0" y="3000.0" linkRefId="102_101" isBlocking="false"/>
		<stopFacility id="98" x="9000.0" y="2000.0" linkRefId="101_100" isBlocking="false"/>
		<stopFacility id="99" x="9000.0" y="1000.0" linkRefId="100_99" isBlocking="false"/>
	</transitStops>
	<transitLine id="Line0">
		<transitRoute id="0">
			<transportMode>train</transportMode>
			<routeProfile>
				<stop refId="0" arrivalOffset="00:02:30" departureOffset="00:03:00" awaitDeparture="true"/>
				<stop refId="1" arrivalOffset="00:02:30" departureOffset="00:03:00" awaitDeparture="true"/>
				<stop refId="2" arrivalOffset="00:02:30" departureOffset="00:03:00" awaitDeparture="true"/>
				<stop refId="3" arrivalOffset="00:02:30" departureOffset="00:03:00" awaitDeparture="true"/>
				<stop refId="4" arrivalOffset="00:02:30" departureOffset="00:03:00" awaitDeparture="true"/>
				<stop refId="5" arrivalOffset="00:02:30" departureOffset="00:03:00" awaitDeparture="true"/>
				<stop refId="6" arrivalOffset="00:02:30" departureOffset="00:03:00" awaitDeparture="true"/>
				<stop refId="7" arrivalOffset="00:02:30" departureOffset="00:03:00" awaitDeparture="true"/>
				<stop refId="8" arrivalOffset="00:02:30" departureOffset="00:03:00" awaitDeparture="true"/>
				<stop refId="9" arrivalOffset="00:02:30" departureOffset="00:03:00" awaitDeparture="true"/>
				<stop refId="10" arrivalOffset="00:02:30" departureOffset="00:03:00" awaitDeparture="true"/>
				<stop refId="11" arrivalOffset="00:02:30" departureOffset="00:03:00" awaitDeparture="true"/>
				<stop refId="12" arrivalOffset="00:02:30" departureOffset="00:03:00" awaitDeparture="true"/>
				<stop refId="13" arrivalOffset="00:02:30" departureOffset="00:03:00" awaitDeparture="true"/>
				<stop refId="14" arrivalOffset="00:02:30" departureOffset="00:03:00" awaitDeparture="true"/>
				<stop refId="15" arrivalOffset="00:02:30" departureOffset="00:03:00" awaitDeparture="true"/>
				<stop refId="16" arrivalOffset="00:02:30" departureOffset="00:03:00" awaitDeparture="true"/>
				<stop refId="17" arrivalOffset="00:02:30" departureOffset="00:03:00" awaitDeparture="true"/>
				<stop refId="18" arrivalOffset="00:02:30" departureOffset="00:03:00" awaitDeparture="true"/>
				<stop refId="19" arrivalOffset="00:02:30" departureOffset="00:03:00" awaitDeparture="true"/>
			</routeProfile>
			<route>
				<link refId="11_12"/>
				<link refId="12_13"/>
				<link refId="13_14"/>
				<link refId="14_15"/>
				<link refId="15_16"/>
				<link refId="16_17"/>
				<link refId="17_18"/>
				<link refId="18_19"/>
				<link refId="19_20"/>
				<link refId="20_21"/>
				<link refId="21_20"/>
				<link refId="20_19"/>
				<link refId="19_18"/>
				<link refId="18_17"/>
				<link refId="17_16"/>
				<link refId="16_15"/>
				<link refId="15_14"/>
				<link refId="14_13"/>
				<link refId="13_12"/>
				<link refId="12_11"/>
			</route>
			<departures>
				<departure id="0" departureTime="06:00:00" vehicleRefId="tr_0"/>
				<departure id="1" departureTime="06:15:00" vehicleRefId="tr_10"/>
				<departure id="10" departureTime="08:30:00" vehicleRefId="tr_20"/>
				<departure id="11" departureTime="08:45:00" vehicleRefId="tr_30"/>
				<departure id="12" departureTime="09:00:00" vehicleRefId="tr_0"/>
				<departure id="13" departureTime="09:15:00" vehicleRefId="tr_10"/>
				<departure id="14" departureTime="09:30:00" vehicleRefId="tr_20"/>
				<departure id="15" departureTime="09:45:00" vehicleRefId="tr_30"/>
				<departure id="16" departureTime="10:00:00" vehicleRefId="tr_0"/>
				<departure id="17" departureTime="10:15:00" vehicleRefId="tr_10"/>
				<departure id="18" departureTime="10:30:00" vehicleRefId="tr_20"/>
				<departure id="19" departureTime="10:45:00" vehicleRefId="tr_30"/>
				<departure id="2" departureTime="06:30:00" vehicleRefId="tr_20"/>
				<departure id="20" departureTime="11:00:00" vehicleRefId="tr_0"/>
				<departure id="21" departureTime="11:15:00" vehicleRefId="tr_10"/>
				<departure id="22" departureTime="11:30:00" vehicleRefId="tr_20"/>
				<departure id="23" departureTime="11:45:00" vehicleRefId="tr_30"/>
				<departure id="24" departureTime="12:00:00" vehicleRefId="tr_0"/>
				<departure id="25" departureTime="12:15:00" vehicleRefId="tr_10"/>
				<departure id="26" departureTime="12:30:00" vehicleRefId="tr_20"/>
				<departure id="27" departureTime="12:45:00" vehicleRefId="tr_30"/>
				<departure id="28" departureTime="13:00:00" vehicleRefId="tr_0"/>
				<departure id="29" departureTime="13:15:00" vehicleRefId="tr_10"/>
				<departure id="3" departureTime="06:45:00" vehicleRefId="tr_30"/>
				<departure id="30" departureTime="13:30:00" vehicleRefId="tr_20"/>
				<departure id="31" departureTime="13:45:00" vehicleRefId="tr_30"/>
				<departure id="32" departureTime="14:00:00" vehicleRefId="tr_0"/>
				<departure id="33" departureTime="14:15:00" vehicleRefId="tr_10"/>
				<departure id="34" departureTime="14:30:00" vehicleRefId="tr_20"/>
				<departure id="35" departureTime="14:45:00" vehicleRefId="tr_30"/>
				<departure id="36" departureTime="15:00:00" vehicleRefId="tr_0"/>
				<departure id="37" departureTime="15:15:00" vehicleRefId="tr_10"/>
				<departure id="38" departureTime="15:30:00" vehicleRefId="tr_20"/>
				<departure id="39" departureTime="15:45:00" vehicleRefId="tr_30"/>
				<departure id="4" departureTime="07:00:00" vehicleRefId="tr_0"/>
				<departure id="40" departureTime="16:00:00" vehicleRefId="tr_0"/>
				<departure id="41" departureTime="16:15:00" vehicleRefId="tr_10"/>
				<departure id="42" departureTime="16:30:00" vehicleRefId="tr_20"/>
				<departure id="43" departureTime="16:45:00" vehicleRefId="tr_30"/>
				<departure id="44" departureTime="17:00:00" vehicleRefId="tr_0"/>
				<departure id="45" departureTime="17:15:00" vehicleRefId="tr_10"/>
				<departure id="46" departureTime="17:30:00" vehicleRefId="tr_20"/>
				<departure id="47" departureTime="17:45:00" vehicleRefId="tr_30"/>
				<departure id="48" departureTime="18:00:00" vehicleRefId="tr_0"/>
				<departure id="49" departureTime="18:15:00" vehicleRefId="tr_10"/>
				<departure id="5" departureTime="07:15:00" vehicleRefId="tr_10"/>
				<departure id="50" departureTime="18:30:00" vehicleRefId="tr_20"/>
				<departure id="51" departureTime="18:45:00" vehicleRefId="tr_30"/>
				<departure id="52" departureTime="19:00:00" vehicleRefId="tr_0"/>
				<departure id="53" departureTime="19:15:00" vehicleRefId="tr_10"/>
				<departure id="54" departureTime="19:30:00" vehicleRefId="tr_20"/>
				<departure id="55" departureTime="19:45:00" vehicleRefId="tr_30"/>
				<departure id="6" departureTime="07:30:00" vehicleRefId="tr_20"/>
				<departure id="7" departureTime="07:45:00" vehicleRefId="tr_30"/>
				<departure id="8" departureTime="08:00:00" vehicleRefId="tr_0"/>
				<departure id="9" departureTime="08:15:00" vehicleRefId="tr_10"/>
			</departures>
		</transitRoute>
	</transitLine>
	<transitLine id="Line1">
		<transitRoute id="1">
			<transportMode>train</transportMode>
			<routeProfile>
				<stop refId="20" arrivalOffset="00:02:30" departureOffset="00:03:00" awaitDeparture="true"/>
				<stop refId="21" arrivalOffset="00:02:30" departureOffset="00:03:00" awaitDeparture="true"/>
				<stop refId="22" arrivalOffset="00:02:30" departureOffset="00:03:00" awaitDeparture="true"/>
				<stop refId="23" arrivalOffset="00:02:30" departureOffset="00:03:00" awaitDeparture="true"/>
				<stop refId="24" arrivalOffset="00:02:30" departureOffset="00:03:00" awaitDeparture="true"/>
				<stop refId="25" arrivalOffset="00:02:30" departureOffset="00:03:00" awaitDeparture="true"/>
				<stop refId="26" arrivalOffset="00:02:30" departureOffset="00:03:00" awaitDeparture="true"/>
				<stop refId="27" arrivalOffset="00:02:30" departureOffset="00:03:00" awaitDeparture="true"/>
				<stop refId="28" arrivalOffset="00:02:30" departureOffset="00:03:00" awaitDeparture="true"/>
				<stop refId="29" arrivalOffset="00:02:30" departureOffset="00:03:00" awaitDeparture="true"/>
				<stop refId="30" arrivalOffset="00:02:30" departureOffset="00:03:00" awaitDeparture="true"/>
				<stop refId="31" arrivalOffset="00:02:30" departureOffset="00:03:00" awaitDeparture="true"/>
				<stop refId="32" arrivalOffset="00:02:30" departureOffset="00:03:00" awaitDeparture="true"/>
				<stop refId="33" arrivalOffset="00:02:30" departureOffset="00:03:00" awaitDeparture="true"/>
				<stop refId="34" arrivalOffset="00:02:30" departureOffset="00:03:00" awaitDeparture="true"/>
				<stop refId="35" arrivalOffset="00:02:30" departureOffset="00:03:00" awaitDeparture="true"/>
				<stop refId="36" arrivalOffset="00:02:30" departureOffset="00:03:00" awaitDeparture="true"/>
				<stop refId="37" arrivalOffset="00:02:30" departureOffset="00:03:00" awaitDeparture="true"/>
				<stop refId="38" arrivalOffset="00:02:30" departureOffset="00:03:00" awaitDeparture="true"/>
				<stop refId="39" arrivalOffset="00:02:30" departureOffset="00:03:00" awaitDeparture="true"/>
			</routeProfile>
			<route>
				<link refId="33_34"/>
				<link refId="34_35"/>
				<link refId="35_36"/>
				<link refId="36_37"/>
				<link refId="37_38"/>
				<link refId="38_39"/>
				<link refId="39_40"/>
				<link refId="40_41"/>
				<link refId="41_42"/>
				<link refId="42_43"/>
				<link refId="43_42"/>
				<link refId="42_41"/>
				<link refId="41_40"/>
				<link refId="40_39"/>
				<link refId="39_38"/>
				<link refId="38_37"/>
				<link refId="37_36"/>
				<link refId="36_35"/>
				<link refId="35_34"/>
				<link refId="34_33"/>
			</route>
			<departures>
				<departure id="0" departureTime="06:00:00" vehicleRefId="tr_1"/>
				<departure id="1" departureTime="06:15:00" vehicleRefId="tr_11"/>
				<departure id="10" departureTime="08:30:00" vehicleRefId="tr_21"/>
				<departure id="11" departureTime="08:45:00" vehicleRefId="tr_31"/>
				<departure id="12" departureTime="09:00:00" vehicleRefId="tr_1"/>
				<departure id="13" departureTime="09:15:00" vehicleRefId="tr_11"/>
				<departure id="14" departureTime="09:30:00" vehicleRefId="tr_21"/>
				<departure id="15" departureTime="09:45:00" vehicleRefId="tr_31"/>
				<departure id="16" departureTime="10:00:00" vehicleRefId="tr_1"/>
				<departure id="17" departureTime="10:15:00" vehicleRefId="tr_11"/>
				<departure id="18" departureTime="10:30:00" vehicleRefId="tr_21"/>
				<departure id="19" departureTime="10:45:00" vehicleRefId="tr_31"/>
				<departure id="2" departureTime="06:30:00" vehicleRefId="tr_21"/>
				<departure id="20" departureTime="11:00:00" vehicleRefId="tr_1"/>
				<departure id="21" departureTime="11:15:00" vehicleRefId="tr_11"/>
				<departure id="22" departureTime="11:30:00" vehicleRefId="tr_21"/>
				<departure id="23" departureTime="11:45:00" vehicleRefId="tr_31"/>
				<departure id="24" departureTime="12:00:00" vehicleRefId="tr_1"/>
				<departure id="25" departureTime="12:15:00" vehicleRefId="tr_11"/>
				<departure id="26" departureTime="12:30:00" vehicleRefId="tr_21"/>
				<departure id="27" departureTime="12:45:00" vehicleRefId="tr_31"/>
				<departure id="28" departureTime="13:00:00" vehicleRefId="tr_1"/>
				<departure id="29" departureTime="13:15:00" vehicleRefId="tr_11"/>
				<departure id="3" departureTime="06:45:00" vehicleRefId="tr_31"/>
				<departure id="30" departureTime="13:30:00" vehicleRefId="tr_21"/>
				<departure id="31" departureTime="13:45:00" vehicleRefId="tr_31"/>
				<departure id="32" departureTime="14:00:00" vehicleRefId="tr_1"/>
				<departure id="33" departureTime="14:15:00" vehicleRefId="tr_11"/>
				<departure id="34" departureTime="14:30:00" vehicleRefId="tr_21"/>
				<departure id="35" departureTime="14:45:00" vehicleRefId="tr_31"/>
				<departure id="36" departureTime="15:00:00" vehicleRefId="tr_1"/>
				<departure id="37" departureTime="15:15:00" vehicleRefId="tr_11"/>
				<departure id="38" departureTime="15:30:00" vehicleRefId="tr_21"/>
				<departure id="39" departureTime="15:45:00" vehicleRefId="tr_31"/>
				<departure id="4" departureTime="07:00:00" vehicleRefId="tr_1"/>
				<departure id="40" departureTime="16:00:00" vehicleRefId="tr_1"/>
				<departure id="41" departureTime="16:15:00" vehicleRefId="tr_11"/>
				<departure id="42" departureTime="16:30:00" vehicleRefId="tr_21"/>
				<departure id="43" departureTime="16:45:00" vehicleRefId="tr_31"/>
				<departure id="44" departureTime="17:00:00" vehicleRefId="tr_1"/>
				<departure id="45" departureTime="17:15:00" vehicleRefId="tr_11"/>
				<departure id="46" departureTime="17:30:00" vehicleRefId="tr_21"/>
				<departure id="47" departureTime="17:45:00" vehicleRefId="tr_31"/>
				<departure id="48" departureTime="18:00:00" vehicleRefId="tr_1"/>
				<departure id="49" departureTime="18:15:00" vehicleRefId="tr_11"/>
				<departure id="5" departureTime="07:15:00" vehicleRefId="tr_11"/>
				<departure id="50" departureTime="18:30:00" vehicleRefId="tr_21"/>
				<departure id="51" departureTime="18:45:00" vehicleRefId="tr_31"/>