<?xml version="1.0" encoding="UTF-8"?>
<!DOCTYPE network SYSTEM "http://www.matsim.org/files/dtd/network_v2.dtd">
<network>

<!-- ====================================================================== -->

	<nodes>
		<node id="0" x="0.0" y="0.0" >
		</node>
		<node id="1" x="0.0" y="1000.0" >
		</node>
		<node id="10" x="0.0" y="10000.0" >
		</node>
		<node id="100" x="9000.0" y="1000.0" >
		</node>
		<node id="101" x="9000.0" y="2000.0" >
		</node>
		<node id="102" x="9000.0" y="3000.0" >
		</node>
		<node id="103" x="9000.0" y="4000.0" >
		</node>
		<node id="104" x="9000.0" y="5000.0" >
		</node>
		<node id="105" x="9000.0" y="6000.0" >
		</node>
		<node id="106" x="9000.0" y="7000.0" >
		</node>
		<node id="107" x="9000.0" y="8000.0" >
		</node>
		<node id="108" x="9000.0" y="9000.0" >
		</node>
		<node id="109" x="9000.0" y="10000.0" >
		</node>
		<node id="11" x="1000.0" y="0.0" >
		</node>
		<node id="110" x="10000.0" y="0.0" >
		</node>
		<node id="111" x="10000.0" y="1000.0" >
		</node>
		<node id="112" x="10000.0" y="2000.0" >
		</node>
		<node id="113" x="10000.0" y="3000.0" >
		</node>
		<node id="114" x="10000.0" y="4000.0" >
		</node>
		<node id="115" x="10000.0" y="5000.0" >
		</node>
		<node id="116" x="10000.0" y="6000.0" >
		</node>
		<node id="117" x="10000.0" y="7000.0" >
		</node>
		<node id="118" x="10000.0" y="8000.0" >
		</node>
		<node id="119" x="10000.0" y="9000.0" >
		</node>
		<node id="12" x="1000.0" y="1000.0" >
		</node>
		<node id="120" x="10000.0" y="10000.0" >
		</node>
		<node id="13" x="1000.0" y="2000.0" >
		</node>
		<node id="14" x="1000.0" y="3000.0" >
		</node>
		<node id="15" x="1000.0" y="4000.0" >
		</node>
		<node id="16" x="1000.0" y="5000.0" >
		</node>
		<node id="17" x="1000.0" y="6000.0" >
		</node>
		<node id="18" x="1000.0" y="7000.0" >
		</node>
		<node id="19" x="1000.0" y="8000.0" >
		</node>
		<node id="2" x="0.0" y="2000.0" >
		</node>
		<node id="20" x="1000.0" y="9000.0" >
		</node>
		<node id="21" x="1000.0" y="10000.0" >
		</node>
		<node id="22" x="2000.0" y="0.0" >
		</node>
		<node id="23" x="2000.0" y="1000.0" >
		</node>
		<node id="24" x="2000.0" y="2000.0" >
		</node>
		<node id="25" x="2000.0" y="3000.0" >
		</node>
		<node id="26" x="2000.0" y="4000.0" >
		</node>
		<node id="27" x="2000.0" y="5000.0" >
		</node>
		<node id="28" x="2000.0" y="6000.0" >
		</node>
		<node id="29" x="2000.0" y="7000.0" >
		</node>
		<node id="3" x="0.0" y="3000.0" >
		</node>
		<node id="30" x="2000.0" y="8000.0" >
		</node>
		<node id="31" x="2000.0" y="9000.0" >
		</node>
		<node id="32" x="2000.0" y="10000.0" >
		</node>
		<node id="33" x="3000.0" y="0.0" >
		</node>
		<node id="34" x="3000.0" y="1000.0" >
		</node>
		<node id="35" x="3000.0" y="2000.0" >
		</node>
		<node id="36" x="3000.0" y="3000.0" >
		</node>
		<node id="37" x="3000.0" y="4000.0" >
		</node>
		<node id="38" x="3000.0" y="5000.0" >
		</node>
		<node id="39" x="3000.0" y="6000.0" >
		</node>
		<node id="4" x="0.0" y="4000.0" >
		</node>
		<node id="40" x="3000.0" y="7000.0" >
		</node>
		<node id="41" x="3000.0" y="8000.0" >
		</node>
		<node id="42" x="3000.0" y="9000.0" >
		</node>
		<node id="43" x="3000.0" y="10000.0" >
		</node>
		<node id="44" x="4000.0" y="0.0" >
		</node>
		<node id="45" x="4000.0" y="1000.0" >
		</node>
		<node id="46" x="4000.0" y="2000.0" >
		</node>
		<node id="47" x="4000.0" y="3000.0" >
		</node>
		<node id="48" x="4000.0" y="4000.0" >
		</node>
		<node id="49" x="4000.0" y="5000.0" >
		</node>
		<node id="5" x="0.0" y="5000.0" >
		</node>
		<node id="50" x="4000.0" y="6000.0" >
		</node>
		<node id="51" x="4000.0" y="7000.0" >
		</node>
		<node id="52" x="4000.0" y="8000.0" >
		</node>
		<node id="53" x="4000.0" y="9000.0" >
		</node>
		<node id="54" x="4000.0" y="10000.0" >
		</node>
		<node id="55" x="5000.0" y="0.0" >
		</node>
		<node id="56" x="5000.0" y="1000.0" >
		</node>
		<node id="57" x="5000.0" y="2000.0" >
		</node>
		<node id="58" x="5000.0" y="3000.0" >
		</node>
		<node id="59" x="5000.0" y="4000.0" >
		</node>
		<node id="6" x="0.0" y="6000.0" >
		</node>
		<node id="60" x="5000.0" y="5000.0" >
		</node>
		<node id="61" x="5000.0" y="6000.0" >
		</node>
		<node id="62" x="5000.0" y="7000.0" >
		</node>
		<node id="63" x="5000.0" y="8000.0" >
		</node>
		<node id="64" x="5000.0" y="9000.0" >
		</node>
		<node id="65" x="5000.0" y="10000.0" >
		</node>
		<node id="66" x="6000.0" y="0.0" >
		</node>
		<node id="67" x="6000.0" y="1000.0" >
		</node>
		<node id="68" x="6000.0" y="2000.0" >
		</node>
		<node id="69" x="6000.0" y="3000.0" >
		</node>
		<node id="7" x="0.0" y="7000.0" >
		</node>
		<node id="70" x="6000.0" y="4000.0" >
		</node>
		<node id="71" x="6000.0" y="5000.0" >
		</node>
		<node id="72" x="6000.0" y="6000.0" >
		</node>
		<node id="73" x="6000.0" y="7000.0" >
		</node>
		<node id="74" x="6000.0" y="8000.0" >
		</node>
		<node id="75" x="6000.0" y="9000.0" >
		</node>
		<node id="76" x="6000.0" y="10000.0" >
		</node>
		<node id="77" x="7000.0" y="0.0" >
		</node>
		<node id="78" x="7000.0" y="1000.0" >
		</node>
		<node id="79" x="7000.0" y="2000.0" >
		</node>
		<node id="8" x="0.0" y="8000.0" >
		</node>
		<node id="80" x="7000.0" y="3000.0" >
		</node>
		<node id="81" x="7000.0" y="4000.0" >
		</node>
		<node id="82" x="7000.0" y="5000.0" >
		</node>
		<node id="83" x="7000.0" y="6000.0" >
		</node>
		<node id="84" x="7000.0" y="7000.0" >
		</node>
		<node id="85" x="7000.0" y="8000.0" >
		</node>
		<node id="86" x="7000.0" y="9000.0" >
		</node>
		<node id="87" x="7000.0" y="10000.0" >
		</node>
		<node id="88" x="8000.0" y="0.0" >
		</node>
		<node id="89" x="8000.0" y="1000.0" >
		</node>
		<node id="9" x="0.0" y="9000.0" >
		</node>
		<node id="90" x="8000.0" y="2000.0" >
		</node>
		<node id="91" x="8000.0" y="3000.0" >
		</node>
		<node id="92" x="8000.0" y="4000.0" >
		</node>
		<node id="93" x="8000.0" y="5000.0" >
		</node>
		<node id="94" x="8000.0" y="6000.0" >
		</node>
		<node id="95" x="8000.0" y="7000.0" >
		</node>
		<node id="96" x="8000.0" y="8000.0" >
		</node>
		<node id="97" x="8000.0" y="9000.0" >
		</node>
		<node id="98" x="8000.0" y="10000.0" >
		</node>
		<node id="99" x="9000.0" y="0.0" >
		</node>
	</nodes>

<!-- ====================================================================== -->

	<links capperiod="01:00:00" effectivecellsize="7.5" effectivelanewidth="3.75">
		<link id="0_1" from="0" to="1" length="1000.0" freespeed="7.5" capacity="10.0" permlanes="1.0" oneway="1" modes="car" >
		</link>
		<link id="0_11" from="0" to="11" length="1000.0" freespeed="7.5" capacity="10.0" permlanes="1.0" oneway="1" modes="car" >
		</link>
		<link id="100_101" from="100" to="101" length="1000.0" freespeed="7.5" capacity="10.0" permlanes="1.0" oneway="1" modes="car,pt" >
		</link>
		<link id="100_111" from="100" to="111" length="1000.0" freespeed="7.5" capacity="10.0" permlanes="1.0" oneway="1" modes="car,pt" >
		</link>
		<link id="101_102" from="101" to="102" length="1000.0" freespeed="7.5" capacity="10.0" permlanes="1.0" oneway="1" modes="car,pt" >
		</link>
		<link id="101_112" from="101" to="112" length="1000.0" freespeed="7.5" capacity="10.0" permlanes="1.0" oneway="1" modes="car" >
		</link>
		<link id="102_103" from="102" to="103" length="1000.0" freespeed="7.5" capacity="10.0" permlanes="1.0" oneway="1" modes="car,pt" >
		</link>
		<link id="102_113" from="102" to="113" length="1000.0" freespeed="7.5" capacity="10.0" permlanes="1.0" oneway="1" modes="car,pt" >
		</link>
		<link id="103_104" from="103" to="104" length="1000.0" freespeed="7.5" capacity="10.0" permlanes="1.0" oneway="1" modes="car,pt" >
		</link>
		<link id="103_114" from="103" to="114" length="1000.0" freespeed="7.5" capacity="10.0" permlanes="1.0" oneway="1" modes="car" >
		</link>
		<link id="104_105" from="104" to="105" length="1000.0" freespeed="7.5" capacity="10.0" permlanes="1.0" oneway="1" modes="car,pt" >
		</link>
		<link id="104_115" from="104" to="115" length="1000.0" freespeed="7.5" capacity="10.0" permlanes="1.0" oneway="1" modes="car,pt" >
		</link>
		<link id="105_106" from="105" to="106" length="1000.0" freespeed="7.5" capacity="10.0" permlanes="1.0" oneway="1" modes="car,pt" >
		</link>
		<link id="105_116" from="105" to="116" length="1000.0" freespeed="7.5" capacity="10.0" permlanes="1.0" oneway="1" modes="car" >
		</link>
		<link id="106_107" from="106" to="107" length="1000.0" freespeed="7.5" capacity="10.0" permlanes="1.0" oneway="1" modes="car,pt" >
		</link>
		<link id="106_117" from="106" to="117" length="1000.0" freespeed="7.5" capacity="10.0" permlanes="1.0" oneway="1" modes="car,pt" >
		</link>
		<link id="107_108" from="107" to="108" length="1000.0" freespeed="7.5" capacity="10.0" permlanes="1.0" oneway="1" modes="car,pt" >
		</link>
		<link id="107_118" from="107" to="118" length="1000.0" freespeed="7.5" capacity="10.0" permlanes="1.0" oneway="1" modes="car" >
		</link>
		<link id="108_109" from="108" to="109" length="1000.0" freespeed="7.5" capacity="10.0" permlanes="1.0" oneway="1" modes="car,pt" >
		</link>
		<link id="108_119" from="108" to="119" length="1000.0" freespeed="7.5" capacity="10.0" permlanes="1.0" oneway="1" modes="car,pt" >
		</link>
		<link id="109_120" from="109" to="120" length="1000.0" freespeed="7.5" capacity="10.0" permlanes="1.0" oneway="1" modes="car" >
		</link>
		<link id="10_21" from="10" to="21" length="1000.0" freespeed="7.5" capacity="10.0" permlanes="1.0" oneway="1" modes="car" >
		</link>
		<link id="110_111" from="110" to="111" length="1000.0" freespeed="7.5" capacity="10.0" permlanes="1.0" oneway="1" modes="car" >
		</link>
		<link id="111_112" from="111" to="112" length="1000.0" freespeed="7.5" capacity="10.0" permlanes="1.0" oneway="1" modes="car" >
		</link>
		<link id="112_113" from="112" to="113" length="1000.0" freespeed="7.5" capacity="10.0" permlanes="1.0" oneway="1" modes="car" >
		</link>
		<link id="113_114" from="113" to="114" length="1000.0" freespeed="7.5" capacity="10.0" permlanes="1.0" oneway="1" modes="car" >
		</link>
		<link id="114_115" from="114" to="115" length="1000.0" freespeed="7.5" capacity="10.0" permlanes="1.0" oneway="1" modes="car" >
		</link>
		<link id="115_116" from="115" to="116" length="1000.0" freespeed="7.5" capacity="10.0" permlanes="1.0" oneway="1" modes="car" >
		</link>
		<link id="116_117" from="116" to="117" length="1000.0" freespeed="7.5" capacity="10.0" permlanes="1.0" oneway="1" modes="car" >
		</link>
		<link id="117_118" from="117" to="118" length="1000.0" freespeed="7.5" capacity="10.0" permlanes="1.0" oneway="1" modes="car" >
		</link>
		<link id="118_119" from="118" to="119" length="1000.0" freespeed="7.5" capacity="10.0" permlanes="1.0" oneway="1" modes="car" >
		</link>
		<link id="119_120" from="119" to="120" length="1000.0" freespeed="7.5" capacity="10.0" permlanes="1.0" oneway="1" modes="car" >
		</link>
		<link id="11_12" from="11" to="12" length="1000.0" freespeed="7.5" capacity="10.0" permlanes="1.0" oneway="1" modes="car,pt" >
		</link>
		<link id="11_22" from="11" to="22" length="1000.0" freespeed="7.5" capacity="10.0" permlanes="1.0" oneway="1" modes="car" >
		</link>
		<link id="12_13" from="12" to="13" length="1000.0" freespeed="7.5" capacity="10.0" permlanes="1.0" oneway="1" modes="car,pt" >
		</link>
		<link id="12_23" from="12" to="23" length="1000.0" freespeed="7.5" capacity="10.0" permlanes="1.0" oneway="1" modes="car,pt" >
		</link>
		<link id="13_14" from="13" to="14" length="1000.0" freespeed="7.5" capacity="10.0" permlanes="1.0" oneway="1" modes="car,pt" >
		</link>
		<link id="13_24" from="13" to="24" length="1000.0" freespeed="7.5" capacity="10.0" permlanes="1.0" oneway="1" modes="car" >
		</link>
		<link id="14_15" from="14" to="15" length="1000.0" freespeed="7.5" capacity="10.0" permlanes="1.0" oneway="1" modes="car,pt" >
		</link>
		<link id="14_25" from="14" to="25" length="1000.0" freespeed="7.5" capacity="10.0" permlanes="1.0" oneway="1" modes="car,pt" >
		</link>
		<link id="15_16" from="15" to="16" length="1000.0" freespeed="7.5" capacity="10.0" permlanes="1.0" oneway="1" modes="car,pt" >
		</link>
		<link id="15_26" from="15" to="26" length="1000.0" freespeed="7.5" capacity="10.0" permlanes="1.0" oneway="1" modes="car" >
		</link>
		<link id="16_17" from="16" to="17" length="1000.0" freespeed="7.5" capacity="10.0" permlanes="1.0" oneway="1" modes="car,pt" >
		</link>
		<link id="16_27" from="16" to="27" length="1000.0" freespeed="7.5" capacity="10.0" permlanes="1.0" oneway="1" modes="car,pt" >
		</link>
		<link id="17_18" from="17" to="18" length="1000.0" freespeed="7.5" capacity="10.0" permlanes="1.0" oneway="1" modes="car,pt" >
		</link>
		<link id="17_28" from="17" to="28" length="1000.0" freespeed="7.5" capacity="10.0" permlanes="1.0" oneway="1" modes="car" >
		</link>
		<link id="18_19" from="18" to="19" length="1000.0" freespeed="7.5" capacity="10.0" permlanes="1.0" oneway="1" modes="car,pt" >
		</link>
		<link id="18_29" from="18" to="29" length="1000.0" freespeed="7.5" capacity="10.0" permlanes="1.0" oneway="1" modes="car,pt" >
		</link>
		<link id="19_20" from="19" to="20" length="1000.0" freespeed="7.5" capacity="10.0" permlanes="1.0" oneway="1" modes="car,pt" >
		</link>
		<link id="19_30" from="19" to="30" length="1000.0" freespeed="7.5" capacity="10.0" permlanes="1.0" oneway="1" modes="car" >
		</link>
		<link id="1_12" from="1" to="12" length="1000.0" freespeed="7.5" capacity="10.0" permlanes="1.0" oneway="1" modes="car,pt" >
		</link>
		<link id="1_2" from="1" to="2" length="1000.0" freespeed="7.5" capacity="10.0" permlanes="1.0" oneway="1" modes="car" >
		</link>
		<link id="20_21" from="20" to="21" length="1000.0" freespeed="7.5" capacity="10.0" permlanes="1.0" oneway="1" modes="car,pt" >
		</link>
		<link id="20_31" from="20" to="31" length="1000.0" freespeed="7.5" capacity="10.0" permlanes="1.0" oneway="1" modes="car,pt" >
		</link>
		<link id="21_32" from="21" to="32" length="1000.0" freespeed="7.5" capacity="10.0" permlanes="1.0" oneway="1" modes="car" >
		</link>
		<link id="22_23" from="22" to="23" length="1000.0" freespeed="7.5" capacity="10.0" permlanes="1.0" oneway="1" modes="car" >
		</link>
		<link id="22_33" from="22" to="33" length="1000.0" freespeed="7.5" capacity="10.0" permlanes="1.0" oneway="1" modes="car" >
		</link>
		<link id="23_24" from="23" to="24" length="1000.0" freespeed="7.5" capacity="10.0" permlanes="1.0" oneway="1" modes="car" >
		</link>
		<link id="23_34" from="23" to="34" length="1000.0" freespeed="7.5" capacity="10.0" permlanes="1.0" oneway="1" modes="car,pt" >
		</link>
		<link id="24_25" from="24" to="25" length="1000.0" freespeed="7.5" capacity="10.0" permlanes="1.0" oneway="1" modes="car" >
		</link>
		<link id="24_35" from="24" to="35" length="1000.0" freespeed="7.5" capacity="10.0" permlanes="1.0" oneway="1" modes="car" >
		</link>
		<link id="25_26" from="25" to="26" length="1000.0" freespeed="7.5" capacity="10.0" permlanes="1.0" oneway="1" modes="car" >
		</link>
		<link id="25_36" from="25" to="36" length="1000.0" freespeed="7.5" capacity="10.0" permlanes="1.0" oneway="1" modes="car,pt" >
		</link>
		<link id="26_27" from="26" to="27" length="1000.0" freespeed="7.5" capacity="10.0" permlanes="1.0" oneway="1" modes="car" >
		</link>
		<link id="26_37" from="26" to="37" length="1000.0" freespeed="7.5" capacity="10.0" permlanes="1.0" oneway="1" modes="car" >
		</link>
		<link id="27_28" from="27" to="28" length="1000.0" freespeed="7.5" capacity="10.0" permlanes="1.0" oneway="1" modes="car" >
		</link>
		<link id="27_38" from="27" to="38" length="1000.0" freespeed="7.5" capacity="10.0" permlanes="1.0" oneway="1" modes="car,pt" >
		</link>
		<link id="28_29" from="28" to="29" length="1000.0" freespeed="7.5" capacity="10.0" permlanes="1.0" oneway="1" modes="car" >
		</link>
		<link id="28_39" from="28" to="39" length="1000.0" freespeed="7.5" capacity="10.0" permlanes="1.0" oneway="1" modes="car" >
		</link>
		<link id="29_30" from="29" to="30" length="1000.0" freespeed="7.5" capacity="10.0" permlanes="1.0" oneway="1" modes="car" >
		</link>
		<link id="29_40" from="29" to="40" length="1000.0" freespeed="7.5" capacity="10.0" permlanes="1.0" oneway="1" modes="car,pt" >
		</link>
		<link id="2_13" from="2" to="13" length="1000.0" freespeed="7.5" capacity="10.0" permlanes="1.0" oneway="1" modes="car" >
		</link>
		<link id="2_3" from="2" to="3" length="1000.0" freespeed="7.5" capacity="10.0" permlanes="1.0" oneway="1" modes="car" >
		</link>
		<link id="30_31" from="30" to="31" length="1000.0" freespeed="7.5" capacity="10.0" permlanes="1.0" oneway="1" modes="car" >
		</link>
		<link id="30_41" from="30" to="41" length="1000.0" freespeed="7.5" capacity="10.0" permlanes="1.0" oneway="1" modes="car" >
		</link>
		<link id="31_32" from="31" to="32" length="1000.0" freespeed="7.5" capacity="10.0" permlanes="1.0" oneway="1" modes="car" >
		</link>
		<link id="31_42" from="31" to="42" length="1000.0" freespeed="7.5" capacity="10.0" permlanes="1.0" oneway="1" modes="car,pt" >
		</link>
		<link id="32_43" from="32" to="43" length="1000.0" freespeed="7.5" capacity="10.0" permlanes="1.0" oneway="1" modes="car" >
		</link>
		<link id="33_34" from="33" to="34" length="1000.0" freespeed="7.5" capacity="10.0" permlanes="1.0" oneway="1" modes="car,pt" >
		</link>
		<link id="33_44" from="33" to="44" length="1000.0" freespeed="7.5" capacity="10.0" permlanes="1.0" oneway="1" modes="car" >
		</link>
		<link id="34_35" from="34" to="35" length="1000.0" freespeed="7.5" capacity="10.0" permlanes="1.0" oneway="1" modes="car,pt" >
		</link>
		<link id="34_45" from="34" to="45" length="1000.0" freespeed="7.5" capacity="10.0" permlanes="1.0" oneway="1" modes="car,pt" >
		</link>
		<link id="35_36" from="35" to="36" length="1000.0" freespeed="7.5" capacity="10.0" permlanes="1.0" oneway="1" modes="car,pt" >
		</link>
		<link id="35_46" from="35" to="46" length="1000.0" freespeed="7.5" capacity="10.0" permlanes="1.0" oneway="1" modes="car" >
		</link>
		<link id="36_37" from="36" to="37" length="1000.0" freespeed="7.5" capacity="10.0" permlanes="1.0" oneway="1" modes="car,pt" >
		</link>
		<link id="36_47" from="36" to="47" length="1000.0" freespeed="7.5" capacity="10.0" permlanes="1.0" oneway="1" modes="car,pt" >
		</link>
		<link id="37_38" from="37" to="38" length="1000.0" freespeed="7.5" capacity="10.0" permlanes="1.0" oneway="1" modes="car,pt" >
		</link>
		<link id="37_48" from="37" to="48" length="1000.0" freespeed="7.5" capacity="10.0" permlanes="1.0" oneway="1" modes="car" >
		</link>
		<link id="38_39" from="38" to="39" length="1000.0" freespeed="7.5" capacity="10.0" permlanes="1.0" oneway="1" modes="car,pt" >
		</link>
		<link id="38_49" from="38" to="49" length="1000.0" freespeed="7.5" capacity="10.0" permlanes="1.0" oneway="1" modes="car,pt" >
		</link>
		<link id="39_40" from="39" to="40" length="1000.0" freespeed="7.5" capacity="10.0" permlanes="1.0" oneway="1" modes="car,pt" >
		</link>
		<link id="39_50" from="39" to="50" length="1000.0" freespeed="7.5" capacity="10.0" permlanes="1.0" oneway="1" modes="car" >
		</link>
		<link id="3_14" from="3" to="14" length="1000.0" freespeed="7.5" capacity="10.0" permlanes="1.0" oneway="1" modes="car,pt" >
		</link>
		<link id="3_4" from="3" to="4" length="1000.0" freespeed="7.5" capacity="10.0" permlanes="1.0" oneway="1" modes="car" >
		</link>
		<link id="40_41" from="40" to="41" length="1000.0" freespeed="7.5" capacity="10.0" permlanes="1.0" oneway="1" modes="car,pt" >
		</link>
		<link id="40_51" from="40" to="51" length="1000.0" freespeed="7.5" capacity="10.0" permlanes="1.0" oneway="1" modes="car,pt" >
		</link>
		<link id="41_42" from="41" to="42" length="1000.0" freespeed="7.5" capacity="10.0" permlanes="1.0" oneway="1" modes="car,pt" >
		</link>
		<link id="41_52" from="41" to="52" length="1000.0" freespeed="7.5" capacity="10.0" permlanes="1.0" oneway="1" modes="car" >
		</link>
		<link id="42_43" from="42" to="43" length="1000.0" freespeed="7.5" capacity="10.0" permlanes="1.0" oneway="1" modes="car,pt" >
		</link>
		<link id="42_53" from="42" to="53" length="1000.0" freespeed="7.5" capacity="10.0" permlanes="1.0" oneway="1" modes="car,pt" >
		</link>
		<link id="43_54" from="43" to="54" length="1000.0" freespeed="7.5" capacity="10.0" permlanes="1.0" oneway="1" modes="car" >
		</link>
		<link id="44_45" from="44" to="45" length="1000.0" freespeed="7.5" capacity="10.0" permlanes="1.0" oneway="1" modes="car" >
		</link>
		<link id="44_55" from="44" to="55" length="1000.0" freespeed="7.5" capacity="10.0" permlanes="1.0" oneway="1" modes="car" >
		</link>
		<link id="45_46" from="45" to="46" length="1000.0" freespeed="7.5" capacity="10.0" permlanes="1.0" oneway="1" modes="car" >
		</link>
		<link id="45_56" from="45" to="56" length="1000.0" freespeed="7.5" capacity="10.0" permlanes="1.0" oneway="1" modes="car,pt" >
		</link>
		<link id="46_47" from="46" to="47" length="1000.0" freespeed="7.5" capacity="10.0" permlanes="1.0" oneway="1" modes="car" >
		</link>
		<link id="46_57" from="46" to="57" length="1000.0" freespeed="7.5" capacity="10.0" permlanes="1.0" oneway="1" modes="car" >
		</link>
		<link id="47_48" from="47" to="48" length="1000.0" freespeed="7.5" capacity="10.0" permlanes="1.0" oneway="1" modes="car" >
		</link>
		<link id="47_58" from="47" to="58" length="1000.0" freespeed="7.5" capacity="10.0" permlanes="1.0" oneway="1" modes="car,pt" >
		</link>
		<link id="48_49" from="48" to="49" length="1000.0" freespeed="7.5" capacity="10.0" permlanes="1.0" oneway="1" modes="car" >
		</link>
		<link id="48_59" from="48" to="59" length="1000.0" freespeed="7.5" capacity="10.0" permlanes="1.0" oneway="1" modes="car" >
		</link>
		<link id="49_50" from="49" to="50" length="1000.0" freespeed="7.5" capacity="10.0" permlanes="1.0" oneway="1" modes="car" >
		</link>
		<link id="49_60" from="49" to="60" length="1000.0" freespeed="7.5" capacity="10.0" permlanes="1.0" oneway="1" modes="car,pt" >
		</link>
		<link id="4_15" from="4" to="15" length="1000.0" freespeed="7.5" capacity="10.0" permlanes="1.0" oneway="1" modes="car" >
		</link>
		<link id="4_5" from="4" to="5" length="1000.0" freespeed="7.5" capacity="10.0" permlanes="1.0" oneway="1" modes="car" >
		</link>
		<link id="50_51" from="50" to="51" length="1000.0" freespeed="7.5" capacity="10.0" permlanes="1.0" oneway="1" modes="car" >
		</link>
		<link id="50_61" from="50" to="61" length="1000.0" freespeed="7.5" capacity="10.0" permlanes="1.0" oneway="1" modes="car" >
		</link>
		<link id="51_52" from="51" to="52" length="1000.0" freespeed="7.5" capacity="10.0" permlanes="1.0" oneway="1" modes="car" >
		</link>
		<link id="51_62" from="51" to="62" length="1000.0" freespeed="7.5" capacity="10.0" permlanes="1.0" oneway="1" modes="car,pt" >
		</link>
		<link id="52_53" from="52" to="53" length="1000.0" freespeed="7.5" capacity="10.0" permlanes="1.0" oneway="1" modes="car" >
		</link>
		<link id="52_63" from="52" to="63" length="1000.0" freespeed="7.5" capacity="10.0" permlanes="1.0" oneway="1" modes="car" >
		</link>
		<link id="53_54" from="53" to="54" length="1000.0" freespeed="7.5" capacity="10.0" permlanes="1.0" oneway="1" modes="car" >
		</link>
		<link id="53_64" from="53" to="64" length="1000.0" freespeed="7.5" capacity="10.0" permlanes="1.0" oneway="1" modes="car,pt" >
		</link>
		<link id="54_65" from="54" to="65" length="1000.0" freespeed="7.5" capacity="10.0" permlanes="1.0" oneway="1" modes="car" >
		</link>
		<link id="55_56" from="55" to="56" length="1000.0" freespeed="7.5" capacity="10.0" permlanes="1.0" oneway="1" modes="car,pt" >
		</link>
		<link id="55_66" from="55" to="66" length="1000.0" freespeed="7.5" capacity="10.0" permlanes="1.0" oneway="1" modes="car" >
		</link>
		<link id="56_57" from="56" to="57" length="1000.0" freespeed="7.5" capacity="10.0" permlanes="1.0" oneway="1" modes="car,pt" >
		</link>
		<link id="56_67" from="56" to="67" length="1000.0" freespeed="7.5" capacity="10.0" permlanes="1.0" oneway="1" modes="car,pt" >
		</link>
		<link id="57_58" from="57" to="58" length="1000.0" freespeed="7.5" capacity="10.0" permlanes="1.0" oneway="1" modes="car,pt" >
		</link>
		<link id="57_68" from="57" to="68" length="1000.0" freespeed="7.5" capacity="10.0" permlanes="1.0" oneway="1" modes="car" >
		</link>
		<link id="58_59" from="58" to="59" length="1000.0" freespeed="7.5" capacity="10.0" permlanes="1.0" oneway="1" modes="car,pt" >
		</link>
		<link id="58_69" from="58" to="69" length="1000.0" freespeed="7.5" capacity="10.0" permlanes="1.0" oneway="1" modes="car,pt" >
		</link>
		<link id="59_60" from="59" to="60" length="1000.0" freespeed="7.5" capacity="10.0" permlanes="1.0" oneway="1" modes="car,pt" >
		</link>
		<link id="59_70" from="59" to="70" length="1000.0" freespeed="7.5" capacity="10.0" permlanes="1.0" oneway="1" modes="car" >
		</link>
		<link id="5_16" from="5" to="16" length="1000.0" freespeed="7.5" capacity="10.0" permlanes="1.0" oneway="1" modes="car,pt" >
		</link>
		<link id="5_6" from="5" to="6" length="1000.0" freespeed="7.5" capacity="10.0" permlanes="1.0" oneway="1" modes="car" >
		</link>
		<link id="60_61" from="60" to="61" length="1000.0" freespeed="7.5" capacity="10.0" permlanes="1.0" oneway="1" modes="car,pt" >
		</link>
		<link id="60_71" from="60" to="71" length="1000.0" freespeed="7.5" capacity="10.0" permlanes="1.0" oneway="1" modes="car,pt" >
		</link>
		<link id="61_62" from="61" to="62" length="1000.0" freespeed="7.5" capacity="10.0" permlanes="1.0" oneway="1" modes="car,pt" >
		</link>
		<link id="61_72" from="61" to="72" length="1000.0" freespeed="7.5" capacity="10.0" permlanes="1.0" oneway="1" modes="car" >
		</link>
		<link id="62_63" from="62" to="63" length="1000.0" freespeed="7.5" capacity="10.0" permlanes="1.0" oneway="1" modes="car,pt" >
		</link>
		<link id="62_73" from="62" to="73" length="1000.0" freespeed="7.5" capacity="10.0" permlanes="1.0" oneway="1" modes="car,pt" >
		</link>
		<link id="63_64" from="63" to="64" length="1000.0" freespeed="7.5" capacity="10.0" permlanes="1.0" oneway="1" modes="car,pt" >
		</link>
		<link id="63_74" from="63" to="74" length="1000.0" freespeed="7.5" capacity="10.0" permlanes="1.0" oneway="1" modes="car" >
		</link>
		<link id="64_65" from="64" to="65" length="1000.0" freespeed="7.5" capacity="10.0" permlanes="1.0" oneway="1" modes="car,pt" >
		</link>
		<link id="64_75" from="64" to="75" length="1000.0" freespeed="7.5" capacity="10.0" permlanes="1.0" oneway="1" modes="car,pt" >
		</link>
		<link id="65_76" from="65" to="76" length="1000.0" freespeed="7.5" capacity="10.0" permlanes="1.0" oneway="1" modes="car" >
		</link>
		<link id="66_67" from="66" to="67" length="1000.0" freespeed="7.5" capacity="10.0" permlanes="1.0" oneway="1" modes="car" >
		</link>
		<link id="66_77" from="66" to="77" length="1000.0" freespeed="7.5" capacity="10.0" permlanes="1.0" oneway="1" modes="car" >
		</link>
		<link id="67_68" from="67" to="68" length="1000.0" freespeed="7.5" capacity="10.0" permlanes="1.0" oneway="1" modes="car" >
		</link>
		<link id="67_78" from="67" to="78" length="1000.0" freespeed="7.5" capacity="10.0" permlanes="1.0" oneway="1" modes="car,pt" >
		</link>
		<link id="68_69" from="68" to="69" length="1000.0" freespeed="7.5" capacity="10.0" permlanes="1.0" oneway="1" modes="car" >
		</link>
		<link id="68_79" from="68" to="79" length="1000.0" freespeed="7.5" capacity="10.0" permlanes="1.0" oneway="1" modes="car" >
		</link>
		<link id="69_70" from="69" to="70" length="1000.0" freespeed="7.5" capacity="10.0" permlanes="1.0" oneway="1" modes="car" >
		</link>
		<link id="69_80" from="69" to="80" length="1000.0" freespeed="7.5" capacity="10.0" permlanes="1.0" oneway="1" modes="car,pt" >
		</link>
		<link id="6_17" from="6" to="17" length="1000.0" freespeed="7.5" capacity="10.0" permlanes="1.0" oneway="1" modes="car" >
		</link>
		<link id="6_7" from="6" to="7" length="1000.0" freespeed="7.5" capacity="10.0" permlanes="1.0" oneway="1" modes="car" >
		</link>
		<link id="70_71" from="70" to="71" length="1000.0" freespeed="7.5" capacity="10.0" permlanes="1.0" oneway="1" modes="car" >
		</link>
		<link id="70_81" from="70" to="81" length="1000.0" freespeed="7.5" capacity="10.0" permlanes="1.0" oneway="1" modes="car" >
		</link>
		<link id="71_72" from="71" to="72" length="1000.0" freespeed="7.5" capacity="10.0" permlanes="1.0" oneway="1" modes="car" >
		</link>
		<link id="71_82" from="71" to="82" length="1000.0" freespeed="7.5" capacity="10.0" permlanes="1.0" oneway="1" modes="car,pt" >
		</link>
		<link id="72_73" from="72" to="73" length="1000.0" freespeed="7.5" capacity="10.0" permlanes="1.0" oneway="1" modes="car" >
		</link>
		<link id="72_83" from="72" to="83" length="1000.0" freespeed="7.5" capacity="10.0" permlanes="1.0" oneway="1" modes="car" >
		</link>
		<link id="73_74" from="73" to="74" length="1000.0" freespeed="7.5" capacity="10.0" permlanes="1.0" oneway="1" modes="car" >
		</link>
		<link id="73_84" from="73" to="84" length="1000.0" freespeed="7.5" capacity="10.0" permlanes="1.0" oneway="1" modes="car,pt" >
		</link>
		<link id="74_75" from="74" to="75" length="1000.0" freespeed="7.5" capacity="10.0" permlanes="1.0" oneway="1" modes="car" >
		</link>
		<link id="74_85" from="74" to="85" length="1000.0" freespeed="7.5" capacity="10.0" permlanes="1.0" oneway="1" modes="car" >
		</link>
		<link id="75_76" from="75" to="76" length="1000.0" freespeed="7.5" capacity="10.0" permlanes="1.0" oneway="1" modes="car" >
		</link>
		<link id="75_86" from="75" to="86" length="1000.0" freespeed="7.5" capacity="10.0" permlanes="1.0" oneway="1" modes="car,pt" >
		</link>
		<link id="76_87" from="76" to="87" length="1000.0" freespeed="7.5" capacity="10.0" permlanes="1.0" oneway="1" modes="car" >
		</link>
		<link id="77_78" from="77" to="78" length="1000.0" freespeed="7.5" capacity="10.0" permlanes="1.0" oneway="1" modes="car,pt" >
		</link>