<?xml version="1.0" encoding="utf-8"?>
<!DOCTYPE population SYSTEM "http://www.matsim.org/files/dtd/population_v6.dtd">

<population>



<!-- ====================================================================== -->

	<person id="car_home0_work93_68">
		<plan selected="yes">
			<activity type="home" x="0.0" y="0.0" end_time="20:23:13" >
			</activity>
			<leg mode="car">
			</leg>
			<activity type="work" x="8000.0" y="5000.0" end_time="24:00:00" >
			</activity>
		</plan>

	</person>

<!-- ====================================================================== -->

	<person id="car_home102_work32_6">
		<plan selected="yes">
			<activity type="home" x="9000.0" y="3000.0" end_time="20:08:37" >
			</activity>
			<leg mode="car">
			</leg>
			<activity type="work" x="2000.0" y="10000.0" end_time="24:00:00" >
			</activity>
		</plan>

	</person>

<!-- ====================================================================== -->

	<person id="car_home102_work5_96">
		<plan selected="yes">
			<activity type="home" x="9000.0" y="3000.0" end_time="20:16:01" >
			</activity>
			<leg mode="car">
			</leg>
			<activity type="work" x="0.0" y="5000.0" end_time="24:00:00" >
			</activity>
		</plan>

	</person>

<!-- ====================================================================== -->

	<person id="car_home102_work85_84">
		<plan selected="yes">
			<activity type="home" x="9000.0" y="3000.0" end_time="09:41:23" >
			</activity>
			<leg mode="car">
			</leg>
			<activity type="work" x="7000.0" y="8000.0" end_time="24:00:00" >
			</activity>
		</plan>

	</person>

<!-- ====================================================================== -->

	<person id="car_home103_work37_44">
		<plan selected="yes">
			<activity type="home" x="9000.0" y="4000.0" end_time="04:54:01" >
			</activity>
			<leg mode="car">
			</leg>
			<activity type="work" x="3000.0" y="4000.0" end_time="24:00:00" >
			</activity>
		</plan>

	</person>

<!-- ====================================================================== -->

	<person id="car_home106_work31_53">
		<plan selected="yes">
			<activity type="home" x="9000.0" y="7000.0" end_time="10:19:59" >
			</activity>
			<leg mode="car">
			</leg>
			<activity type="work" x="2000.0" y="9000.0" end_time="24:00:00" >
			</activity>
		</plan>

	</person>

<!-- ====================================================================== -->

	<person id="car_home106_work60_87">
		<plan selected="yes">
			<activity type="home" x="9000.0" y="7000.0" end_time="23:53:09" >
			</activity>
			<leg mode="car">
			</leg>
			<activity type="work" x="5000.0" y="5000.0" end_time="24:00:00" >
			</activity>
		</plan>

	</person>

<!-- ====================================================================== -->

	<person id="car_home106_work91_30">
		<plan selected="yes">
			<activity type="home" x="9000.0" y="7000.0" end_time="15:47:02" >
			</activity>
			<leg mode="car">
			</leg>
			<activity type="work" x="8000.0" y="3000.0" end_time="24:00:00" >
			</activity>
		</plan>

	</person>

<!-- ====================================================================== -->

	<person id="car_home108_work55_11">
		<plan selected="yes">
			<activity type="home" x="9000.0" y="9000.0" end_time="21:37:39" >
			</activity>
			<leg mode="car">
			</leg>
			<activity type="work" x="5000.0" y="0.0" end_time="24:00:00" >
			</activity>
		</plan>

	</person>

<!-- ====================================================================== -->

	<person id="car_home109_work79_7">
		<plan selected="yes">
			<activity type="home" x="9000.0" y="10000.0" end_time="02:15:05" >
			</activity>
			<leg mode="car">
			</leg>
			<activity type="work" x="7000.0" y="2000.0" end_time="24:00:00" >
			</activity>
		</plan>

	</person>

<!-- ====================================================================== -->

	<person id="car_home10_work98_38">
		<plan selected="yes">
			<activity type="home" x="0.0" y="10000.0" end_time="07:37:27" >
			</activity>
			<leg mode="car">
			</leg>
			<activity type="work" x="8000.0" y="10000.0" end_time="24:00:00" >
			</activity>
		</plan>

	</person>

<!-- ====================================================================== -->

	<person id="car_home110_work91_58">
		<plan selected="yes">
			<activity type="home" x="10000.0" y="0.0" end_time="17:39:00" >
			</activity>
			<leg mode="car">
			</leg>
			<activity type="work" x="8000.0" y="3000.0" end_time="24:00:00" >
			</activity>
		</plan>

	</person>

<!-- ====================================================================== -->

	<person id="car_home112_work86_42">
		<plan selected="yes">
			<activity type="home" x="10000.0" y="2000.0" end_time="19:28:34" >
			</activity>
			<leg mode="car">
			</leg>
			<activity type="work" x="7000.0" y="9000.0" end_time="24:00:00" >
			</activity>
		</plan>

	</person>

<!-- ====================================================================== -->

	<person id="car_home114_work92_5">
		<plan selected="yes">
			<activity type="home" x="10000.0" y="4000.0" end_time="09:01:19" >
			</activity>
			<leg mode="car">
			</leg>
			<activity type="work" x="8000.0" y="4000.0" end_time="24:00:00" >
			</activity>
		</plan>

	</person>

<!-- ====================================================================== -->

	<person id="car_home117_work44_76">
		<plan selected="yes">
			<activity type="home" x="10000.0" y="7000.0" end_time="14:55:32" >
			</activity>
			<leg mode="car">
			</leg>
			<activity type="work" x="4000.0" y="0.0" end_time="24:00:00" >
			</activity>
		</plan>

	</person>

<!-- ====================================================================== -->

	<person id="car_home118_work32_85">
		<plan selected="yes">
			<activity type="home" x="10000.0" y="8000.0" end_time="09:57:10" >
			</activity>
			<leg mode="car">
			</leg>
			<activity type="work" x="2000.0" y="10000.0" end_time="24:00:00" >
			</activity>
		</plan>

	</person>

<!-- ====================================================================== -->

	<person id="car_home119_work118_73">
		<plan selected="yes">
			<activity type="home" x="10000.0" y="9000.0" end_time="17:46:21" >
			</activity>
			<leg mode="car">
			</leg>
			<activity type="work" x="10000.0" y="8000.0" end_time="24:00:00" >
			</activity>
		</plan>

	</person>

<!-- ====================================================================== -->

	<person id="car_home119_work31_41">
		<plan selected="yes">
			<activity type="home" x="10000.0" y="9000.0" end_time="19:32:46" >
			</activity>
			<leg mode="car">
			</leg>
			<activity type="work" x="2000.0" y="9000.0" end_time="24:00:00" >
			</activity>
		</plan>

	</person>

<!-- ====================================================================== -->

	<person id="car_home120_work117_56">
		<plan selected="yes">
			<activity type="home" x="10000.0" y="10000.0" end_time="00:53:46" >
			</activity>
			<leg mode="car">
			</leg>
			<activity type="work" x="10000.0" y="7000.0" end_time="24:00:00" >
			</activity>
		</plan>

	</person>

<!-- ====================================================================== -->

	<person id="car_home12_work52_28">
		<plan selected="yes">
			<activity type="home" x="1000.0" y="1000.0" end_time="13:16:39" >
			</activity>
			<leg mode="car">
			</leg>
			<activity type="work" x="4000.0" y="8000.0" end_time="24:00:00" >
			</activity>
		</plan>

	</person>

<!-- ====================================================================== -->

	<person id="car_home14_work41_24">
		<plan selected="yes">
			<activity type="home" x="1000.0" y="3000.0" end_time="07:55:55" >
			</activity>
			<leg mode="car">
			</leg>
			<activity type="work" x="3000.0" y="8000.0" end_time="24:00:00" >
			</activity>
		</plan>

	</person>

<!-- ====================================================================== -->

	<person id="car_home15_work7_2">
		<plan selected="yes">
			<activity type="home" x="1000.0" y="4000.0" end_time="05:18:10" >
			</activity>
			<leg mode="car">
			</leg>
			<activity type="work" x="0.0" y="7000.0" end_time="24:00:00" >
			</activity>
		</plan>

	</person>

<!-- ====================================================================== -->

	<person id="car_home16_work8_93">
		<plan selected="yes">
			<activity type="home" x="1000.0" y="5000.0" end_time="19:18:23" >
			</activity>
			<leg mode="car">
			</leg>
			<activity type="work" x="0.0" y="8000.0" end_time="24:00:00" >
			</activity>
		</plan>

	</person>

<!-- ====================================================================== -->

	<person id="car_home17_work107_45">
		<plan selected="yes">
			<activity type="home" x="1000.0" y="6000.0" end_time="04:44:04" >
			</activity>
			<leg mode="car">
			</leg>
			<activity type="work" x="9000.0" y="8000.0" end_time="24:00:00" >
			</activity>
		</plan>

	</person>

<!-- ====================================================================== -->

	<person id="car_home17_work15_98">
		<plan selected="yes">
			<activity type="home" x="1000.0" y="6000.0" end_time="05:21:54" >
			</activity>
			<leg mode="car">
			</leg>
			<activity type="work" x="1000.0" y="4000.0" end_time="24:00:00" >
			</activity>
		</plan>

	</person>

<!-- ====================================================================== -->

	<person id="car_home17_work63_39">
		<plan selected="yes">
			<activity type="home" x="1000.0" y="6000.0" end_time="05:02:31" >
			</activity>
			<leg mode="car">
			</leg>
			<activity type="work" x="5000.0" y="8000.0" end_time="24:00:00" >
			</activity>
		</plan>

	</person>

<!-- ====================================================================== -->

	<person id="car_home19_work57_80">
		<plan selected="yes">
			<activity type="home" x="1000.0" y="8000.0" end_time="11:54:43" >
			</activity>
			<leg mode="car">
			</leg>
			<activity type="work" x="5000.0" y="2000.0" end_time="24:00:00" >
			</activity>
		</plan>

	</person>

<!-- ====================================================================== -->

	<person id="car_home1_work67_17">
		<plan selected="yes">
			<activity type="home" x="0.0" y="1000.0" end_time="00:47:58" >
			</activity>
			<leg mode="car">
			</leg>
			<activity type="work" x="6000.0" y="1000.0" end_time="24:00:00" >
			</activity>
		</plan>

	</person>

<!-- ====================================================================== -->

	<person id="car_home21_work94_75">
		<plan selected="yes">
			<activity type="home" x="1000.0" y="10000.0" end_time="17:41:54" >
			</activity>
			<leg mode="car">
			</leg>
			<activity type="work" x="8000.0" y="6000.0" end_time="24:00:00" >
			</activity>
		</plan>

	</person>

<!-- ====================================================================== -->

	<person id="car_home23_work4_22">
		<plan selected="yes">
			<activity type="home" x="2000.0" y="1000.0" end_time="10:52:41" >
			</activity>
			<leg mode="car">
			</leg>
			<activity type="work" x="0.0" y="4000.0" end_time="24:00:00" >
			</activity>
		</plan>

	</person>

<!-- ====================================================================== -->

	<person id="car_home23_work56_72">
		<plan selected="yes">
			<activity type="home" x="2000.0" y="1000.0" end_time="11:46:34" >
			</activity>
			<leg mode="car">
			</leg>
			<activity type="work" x="5000.0" y="1000.0" end_time="24:00:00" >
			</activity>
		</plan>

	</person>

<!-- ====================================================================== -->

	<person id="car_home26_work65_62">
		<plan selected="yes">
			<activity type="home" x="2000.0" y="4000.0" end_time="04:12:06" >
			</activity>
			<leg mode="car">
			</leg>
			<activity type="work" x="5000.0" y="10000.0" end_time="24:00:00" >
			</activity>
		</plan>

	</person>

<!-- ====================================================================== -->

	<person id="car_home27_work16_25">
		<plan selected="yes">
			<activity type="home" x="2000.0" y="5000.0" end_time="22:04:55" >
			</activity>
			<leg mode="car">
			</leg>
			<activity type="work" x="1000.0" y="5000.0" end_time="24:00:00" >
			</activity>
		</plan>

	</person>

<!-- ====================================================================== -->

	<person id="car_home27_work72_37">
		<plan selected="yes">
			<activity type="home" x="2000.0" y="5000.0" end_time="14:20:10" >
			</activity>
			<leg mode="car">
			</leg>
			<activity type="work" x="6000.0" y="6000.0" end_time="24:00:00" >
			</activity>
		</plan>

	</person>

<!-- ====================================================================== -->

	<person id="car_home28_work49_60">
		<plan selected="yes">
			<activity type="home" x="2000.0" y="6000.0" end_time="19:48:29" >
			</activity>
			<leg mode="car">
			</leg>
			<activity type="work" x="4000.0" y="5000.0" end_time="24:00:00" >
			</activity>
		</plan>

	</person>

<!-- ====================================================================== -->

	<person id="car_home28_work81_86">
		<plan selected="yes">
			<activity type="home" x="2000.0" y="6000.0" end_time="13:11:36" >
			</activity>
			<leg mode="car">
			</leg>
			<activity type="work" x="7000.0" y="4000.0" end_time="24:00:00" >
			</activity>
		</plan>

	</person>

<!-- ====================================================================== -->

	<person id="car_home2_work86_15">
		<plan selected="yes">
			<activity type="home" x="0.0" y="2000.0" end_time="16:05:13" >
			</activity>
			<leg mode="car">
			</leg>
			<activity type="work" x="7000.0" y="9000.0" end_time="24:00:00" >
			</activity>
		</plan>

	</person>

<!-- ====================================================================== -->

	<person id="car_home30_work115_1">
		<plan selected="yes">
			<activity type="home" x="2000.0" y="8000.0" end_time="01:12:47" >
			</activity>
			<leg mode="car">
			</leg>
			<activity type="work" x="10000.0" y="5000.0" end_time="24:00:00" >
			</activity>
		</plan>

	</person>

<!-- ====================================================================== -->

	<person id="car_home32_work45_29">
		<plan selected="yes">
			<activity type="home" x="2000.0" y="10000.0" end_time="21:04:44" >
			</activity>
			<leg mode="car">
			</leg>
			<activity type="work" x="4000.0" y="1000.0" end_time="24:00:00" >
			</activity>
		</plan>

	</person>

<!-- ====================================================================== -->

	<person id="car_home34_work76_26">
		<plan selected="yes">
			<activity type="home" x="3000.0" y="1000.0" end_time="07:20:31" >
			</activity>
			<leg mode="car">
			</leg>
			<activity type="work" x="6000.0" y="10000.0" end_time="24:00:00" >
			</activity>
		</plan>

	</person>

<!-- ====================================================================== -->

	<person id="car_home38_work51_63">
		<plan selected="yes">
			<activity type="home" x="3000.0" y="5000.0" end_time="19:42:28" >
			</activity>
			<leg mode="car">
			</leg>
			<activity type="work" x="4000.0" y="7000.0" end_time="24:00:00" >
			</activity>
		</plan>

	</person>

<!-- ====================================================================== -->

	<person id="car_home38_work67_94">
		<plan selected="yes">
			<activity type="home" x="3000.0" y="5000.0" end_time="16:40:23" >
			</activity>
			<leg mode="car">
			</leg>
			<activity type="work" x="6000.0" y="1000.0" end_time="24:00:00" >
			</activity>
		</plan>

	</person>

<!-- ====================================================================== -->

	<person id="car_home3_work32_55">
		<plan selected="yes">
			<activity type="home" x="0.0" y="3000.0" end_time="01:17:58" >
			</activity>
			<leg mode="car">
			</leg>
			<activity type="work" x="2000.0" y="10000.0" end_time="24:00:00" >
			</activity>
		</plan>

	</person>

<!-- ====================================================================== -->

	<person id="car_home40_work15_48">
		<plan selected="yes">
			<activity type="home" x="3000.0" y="7000.0" end_time="21:20:24" >
			</activity>
			<leg mode="car">
			</leg>
			<activity type="work" x="1000.0" y="4000.0" end_time="24:00:00" >
			</activity>
		</plan>

	</person>

<!-- ====================================================================== -->

	<person id="car_home42_work7_40">
		<plan selected="yes">
			<activity type="home" x="3000.0" y="9000.0" end_time="00:07:25" >
			</activity>
			<leg mode="car">
			</leg>
			<activity type="work" x="0.0" y="7000.0" end_time="24:00:00" >
			</activity>
		</plan>

	</person>

<!-- ====================================================================== -->

	<person id="car_home44_work95_74">
		<plan selected="yes">
			<activity type="home" x="4000.0" y="0.0" end_time="23:59:17" >
			</activity>
			<leg mode="car">
			</leg>
			<activity type="work" x="8000.0" y="7000.0" end_time="24:00:00" >
			</activity>
		</plan>

	</person>

<!-- ====================================================================== -->

	<person id="car_home47_work109_46">
		<plan selected="yes">
			<activity type="home" x="4000.0" y="3000.0" end_time="19:28:57" >
			</activity>
			<leg mode="car">
			</leg>
			<activity type="work" x="9000.0" y="10000.0" end_time="24:00:00" >
			</activity>
		</plan>

	</person>

<!-- ====================================================================== -->

	<person id="car_home47_work119_34">
		<plan selected="yes">
			<activity type="home" x="4000.0" y="3000.0" end_time="16:50:46" >
			</activity>
			<leg mode="car">
			</leg>
			<activity type="work" x="10000.0" y="9000.0" end_time="24:00:00" >
			</activity>
		</plan>

	</person>

<!-- ====================================================================== -->

	<person id="car_home47_work38_71">
		<plan selected="yes">
			<activity type="home" x="4000.0" y="3000.0" end_time="05:13:31" >
			</activity>
			<leg mode="car">
			</leg>
			<activity type="work" x="3000.0" y="5000.0" end_time="24:00:00" >
			</activity>
		</plan>

	</person>

<!-- ====================================================================== -->

	<person id="car_home47_work79_65">
		<plan selected="yes">
			<activity type="home" x="4000.0" y="3000.0" end_time="15:01:16" >
			</activity>
			<leg mode="car">
			</leg>
			<activity type="work" x="7000.0" y="2000.0" end_time="24:00:00" >
			</activity>
		</plan>

	</person>

<!-- ====================================================================== -->

	<person id="car_home47_work7_95">
		<plan selected="yes">
			<activity type="home" x="4000.0" y="3000.0" end_time="22:24:22" >
			</activity>
			<leg mode="car">
			</leg>
			<activity type="work" x="0.0" y="7000.0" end_time="24:00:00" >
			</activity>
		</plan>

	</person>

<!-- ====================================================================== -->

	<person id="car_home50_work67_49">
		<plan selected="yes">
			<activity type="home" x="4000.0" y="6000.0" end_time="21:16:17" >
			</activity>
			<leg mode="car">
			</leg>
			<activity type="work" x="6000.0" y="1000.0" end_time="24:00:00" >
			</activity>
		</plan>

	</person>

<!-- ====================================================================== -->

	<person id="car_home53_work111_4">
		<plan selected="yes">
			<activity type="home" x="4000.0" y="9000.0" end_time="12:27:43" >
			</activity>
			<leg mode="car">
			</leg>
			<activity type="work" x="10000.0" y="1000.0" end_time="24:00:00" >
			</activity>
		</plan>

	</person>

<!-- ====================================================================== -->

	<person id="car_home53_work68_36">
		<plan selected="yes">
			<activity type="home" x="4000.0" y="9000.0" end_time="23:07:31" >
			</activity>
			<leg mode="car">
			</leg>
			<activity type="work" x="6000.0" y="2000.0" end_time="24:00:00" >
			</activity>
		</plan>

	</person>

<!-- ====================================================================== -->

	<person id="car_home54_work15_50">
		<plan selected="yes">
			<activity type="home" x="4000.0" y="10000.0" end_time="21:18:34" >
			</activity>
			<leg mode="car">
			</leg>
			<activity type="work" x="1000.0" y="4000.0" end_time="24:00:00" >
			</activity>
		</plan>

	</person>

<!-- ====================================================================== -->

	<person id="car_home55_work12_52">
		<plan selected="yes">
			<activity type="home" x="5000.0" y="0.0" end_time="08:02:13" >
			</activity>
			<leg mode="car">
			</leg>
			<activity type="work" x="1000.0" y="1000.0" end_time="24:00:00" >
			</activity>
		</plan>

	</person>

<!-- ====================================================================== -->

	<person id="car_home58_work66_82">
		<plan selected="yes">
			<activity type="home" x="5000.0" y="3000.0" end_time="08:29:34" >
			</activity>
			<leg mode="car">
			</leg>
			<activity type="work" x="6000.0" y="0.0" end_time="24:00:00" >
			</activity>
		</plan>

	</person>

<!-- ====================================================================== -->

	<person id="car_home5_work25_89">
		<plan selected="yes">
			<activity type="home" x="0.0" y="5000.0" end_time="20:24:53" >
			</activity>
			<leg mode="car">
			</leg>
			<activity type="work" x="2000.0" y="3000.0" end_time="24:00:00" >
			</activity>
		</plan>

	</person>

<!-- ====================================================================== -->

	<person id="car_home5_work35_14">
		<plan selected="yes">
			<activity type="home" x="0.0" y="5000.0" end_time="00:50:47" >
			</activity>
			<leg mode="car">
			</leg>
			<activity type="work" x="3000.0" y="2000.0" end_time="24:00:00" >
			</activity>
		</plan>

	</person>

<!-- ====================================================================== -->

	<person id="car_home62_work56_54">
		<plan selected="yes">
			<activity type="home" x="5000.0" y="7000.0" end_time="03:52:38" >
			</activity>
			<leg mode="car">
			</leg>
			<activity type="work" x="5000.0" y="1000.0" end_time="24:00:00" >
			</activity>
		</plan>

	</person>

<!-- ====================================================================== -->

	<person id="car_home63_work49_66">
		<plan selected="yes">
			<activity type="home" x="5000.0" y="8000.0" end_time="02:04:58" >
			</activity>
			<leg mode="car">
			</leg>
			<activity type="work" x="4000.0" y="5000.0" end_time="24:00:00" >
			</activity>
		</plan>

	</person>

<!-- ====================================================================== -->

	<person id="car_home64_work69_16">
		<plan selected="yes">
			<activity type="home" x="5000.0" y="9000.0" end_time="11:13:13" >
			</activity>
			<leg mode="car">
			</leg>
			<activity type="work" x="6000.0" y="3000.0" end_time="24:00:00" >
			</activity>
		</plan>

	</person>

<!-- ====================================================================== -->

	<person id="car_home65_work9_79">
		<plan selected="yes">
			<activity type="home" x="5000.0" y="10000.0" end_time="06:41:42" >
			</activity>
			<leg mode="car">
			</leg>
			<activity type="work" x="0.0" y="9000.0" end_time="24:00:00" >
			</activity>
		</plan>

	</person>

<!-- ====================================================================== -->

	<person id="car_home66_work16_67">
		<plan selected="yes">
			<activity type="home" x="6000.0" y="0.0" end_time="02:48:38" >
			</activity>
			<leg mode="car">
			</leg>
			<activity type="work" x="1000.0" y="5000.0" end_time="24:00:00" >
			</activity>
		</plan>

	</person>

<!-- ====================================================================== -->

	<person id="car_home66_work89_83">
		<plan selected="yes">
			<activity type="home" x="6000.0" y="0.0" end_time="16:49:30" >
			</activity>
			<leg mode="car">
			</leg>
			<activity type="work" x="8000.0" y="1000.0" end_time="24:00:00" >
			</activity>
		</plan>

	</person>

<!-- ====================================================================== -->

	<person id="car_home69_work99_69">
		<plan selected="yes">
			<activity type="home" x="6000.0" y="3000.0" end_time="06:59:25" >
			</activity>
			<leg mode="car">
			</leg>
			<activity type="work" x="9000.0" y="0.0" end_time="24:00:00" >
			</activity>
		</plan>

	</person>

<!-- ====================================================================== -->

	<person id="car_home6_work101_88">
		<plan selected="yes">
			<activity type="home" x="0.0" y="6000.0" end_time="05:35:26" >
			</activity>
			<leg mode="car">
			</leg>
			<activity type="work" x="9000.0" y="2000.0" end_time="24:00:00" >
			</activity>
		</plan>

	</person>

<!-- ====================================================================== -->

	<person id="car_home70_work28_21">
		<plan selected="yes">
			<activity type="home" x="6000.0" y="4000.0" end_time="10:08:16" >
			</activity>
			<leg mode="car">
			</leg>
			<activity type="work" x="2000.0" y="6000.0" end_time="24:00:00" >
			</activity>
		</plan>

	</person>

<!-- ====================================================================== -->

	<person id="car_home70_work92_13">
		<plan selected="yes">
			<activity type="home" x="6000.0" y="4000.0" end_time="15:56:10" >
			</activity>
			<leg mode="car">
			</leg>
			<activity type="work" x="8000.0" y="4000.0" end_time="24:00:00" >
			</activity>
		</plan>

	</person>

<!-- ====================================================================== -->

	<person id="car_home72_work76_27">
		<plan selected="yes">
			<activity type="home" x="6000.0" y="6000.0" end_time="21:58:43" >
			</activity>
			<leg mode="car">
			</leg>
			<activity type="work" x="6000.0" y="10000.0" end_time="24:00:00" >
			</activity>
		</plan>

	</person>

<!-- ====================================================================== -->

	<person id="car_home73_work3_91">
		<plan selected="yes">
			<activity type="home" x="6000.0" y="7000.0" end_time="00:58:56" >
			</activity>
			<leg mode="car">
			</leg>
			<activity type="work" x="0.0" y="3000.0" end_time="24:00:00" >
			</activity>
		</plan>

	</person>

<!-- ====================================================================== -->

	<person id="car_home73_work71_61">
		<plan selected="yes">
			<activity type="home" x="6000.0" y="7000.0" end_time="17:25:44" >
			</activity>
			<leg mode="car">
			</leg>
			<activity type="work" x="6000.0" y="5000.0" end_time="24:00:00" >
			</activity>
		</plan>

	</person>

<!-- ====================================================================== -->

	<person id="car_home74_work47_31">
		<plan selected="yes">
			<activity type="home" x="6000.0" y="8000.0" end_time="19:53:53" >
			</activity>
			<leg mode="car">
			</leg>
			<activity type="work" x="4000.0" y="3000.0" end_time="24:00:00" >
			</activity>
		</plan>

	</person>

<!-- ====================================================================== -->

	<person id="car_home74_work62_47">
		<plan selected="yes">
			<activity type="home" x="6000.0" y="8000.0" end_time="21:17:24" >
			</activity>
			<leg mode="car">
			</leg>
			<activity type="work" x="5000.0" y="7000.0" end_time="24:00:00" >
			</activity>
		</plan>

	</person>

<!-- ====================================================================== -->

	<person id="car_home74_work65_35">
		<plan selected="yes">
			<activity type="home" x="6000.0" y="8000.0" end_time="13:21:51" >
			</activity>
			<leg mode="car">
			</leg>
			<activity type="work" x="5000.0" y="10000.0" end_time="24:00:00" >
			</activity>
		</plan>

	</person>

<!-- ====================================================================== -->

	<person id="car_home76_work38_8">
		<plan selected="yes">
			<activity type="home" x="6000.0" y="10000.0" end_time="00:05:08" >
			</activity>
			<leg mode="car">
			</leg>
			<activity type="work" x="3000.0" y="5000.0" end_time="24:00:00" >
			</activity>
		</plan>

	</person>

<!-- ====================================================================== -->

	<person id="car_home77_work7_78">
		<plan selected="yes">
			<activity type="home" x="7000.0" y="0.0" end_time="16:35:55" >
			</activity>
			<leg mode="car">
			</leg>
			<activity type="work" x="0.0" y="7000.0" end_time="24:00:00" >
			</activity>
		</plan>

	</person>

<!-- ====================================================================== -->

	<person id="car_home78_work1_57">
		<plan selected="yes">
			<activity type="home" x="7000.0" y="1000.0" end_time="01:50:58" >
			</activity>
			<leg mode="car">
			</leg>
			<activity type="work" x="0.0" y="1000.0" end_time="24:00:00" >
			</activity>
		</plan>

	</person>

<!-- ====================================================================== -->

	<person id="car_home78_work58_70">
		<plan selected="yes">
			<activity type="home" x="7000.0" y="1000.0" end_time="03:04:12" >
			</activity>
			<leg mode="car">
			</leg>
			<activity type="work" x="5000.0" y="3000.0" end_time="24:00:00" >
			</activity>
		</plan>

	</person>

<!-- ====================================================================== -->

	<person id="car_home7_work43_33">
		<plan selected="yes">
			<activity type="home" x="0.0" y="7000.0" end_time="02:02:11" >
			</activity>
			<leg mode="car">
			</leg>
			<activity type="work" x="3000.0" y="10000.0" end_time="24:00:00" >
			</activity>
		</plan>

	</person>

<!-- ====================================================================== -->

	<person id="car_home84_work21_43">
		<plan selected="yes">
			<activity type="home" x="7000.0" y="7000.0" end_time="08:51:01" >
			</activity>
			<leg mode="car">
			</leg>
			<activity type="work" x="1000.0" y="10000.0" end_time="24:00:00" >
			</activity>
		</plan>

	</person>

<!-- ====================================================================== -->

	<person id="car_home84_work57_23">
		<plan selected="yes">
			<activity type="home" x="7000.0" y="7000.0" end_time="03:12:13" >
			</activity>
			<leg mode="car">
			</leg>
			<activity type="work" x="5000.0" y="2000.0" end_time="24:00:00" >
			</activity>
		</plan>

	</person>

<!-- ====================================================================== -->

	<person id="car_home84_work78_64">
		<plan selected="yes">
			<activity type="home" x="7000.0" y="7000.0" end_time="21:26:57" >
			</activity>