<?xml version="1.0" encoding="utf-8"?>
<!DOCTYPE population SYSTEM "http://www.matsim.org/files/dtd/population_v6.dtd">

<population>



<!-- ====================================================================== -->

	<person id="pt_100_7_32">
		<plan selected="yes">
			<activity type="dummy" x="7000.0" y="3000.0" end_time="04:42:25" >
			</activity>
			<leg mode="walk">
			</leg>
			<activity type="dummy" x="9000.0" y="5000.0" end_time="24:00:00" >
			</activity>
		</plan>

	</person>

<!-- ====================================================================== -->

	<person id="pt_101_67_31">
		<plan selected="yes">
			<activity type="dummy" x="7000.0" y="4000.0" end_time="02:09:52" >
			</activity>
			<leg mode="walk">
			</leg>
			<activity type="dummy" x="4000.0" y="6000.0" end_time="24:00:00" >
			</activity>
		</plan>

	</person>

<!-- ====================================================================== -->

	<person id="pt_108_16_71">
		<plan selected="yes">
			<activity type="dummy" x="8000.0" y="0.0" end_time="19:59:15" >
			</activity>
			<leg mode="walk">
			</leg>
			<activity type="dummy" x="10000.0" y="2000.0" end_time="24:00:00" >
			</activity>
		</plan>

	</person>

<!-- ====================================================================== -->

	<person id="pt_108_22_47">
		<plan selected="yes">
			<activity type="dummy" x="8000.0" y="0.0" end_time="18:29:49" >
			</activity>
			<leg mode="walk">
			</leg>
			<activity type="dummy" x="10000.0" y="8000.0" end_time="24:00:00" >
			</activity>
		</plan>

	</person>

<!-- ====================================================================== -->

	<person id="pt_108_5_1">
		<plan selected="yes">
			<activity type="dummy" x="8000.0" y="0.0" end_time="13:19:47" >
			</activity>
			<leg mode="walk">
			</leg>
			<activity type="dummy" x="9000.0" y="3000.0" end_time="24:00:00" >
			</activity>
		</plan>

	</person>

<!-- ====================================================================== -->

	<person id="pt_109_94_84">
		<plan selected="yes">
			<activity type="dummy" x="8000.0" y="1000.0" end_time="20:04:19" >
			</activity>
			<leg mode="walk">
			</leg>
			<activity type="dummy" x="6000.0" y="9000.0" end_time="24:00:00" >
			</activity>
		</plan>

	</person>

<!-- ====================================================================== -->

	<person id="pt_10_54_88">
		<plan selected="yes">
			<activity type="dummy" x="9000.0" y="8000.0" end_time="16:19:30" >
			</activity>
			<leg mode="walk">
			</leg>
			<activity type="dummy" x="3000.0" y="6000.0" end_time="24:00:00" >
			</activity>
		</plan>

	</person>

<!-- ====================================================================== -->

	<person id="pt_10_83_96">
		<plan selected="yes">
			<activity type="dummy" x="9000.0" y="8000.0" end_time="11:50:34" >
			</activity>
			<leg mode="walk">
			</leg>
			<activity type="dummy" x="5000.0" y="10000.0" end_time="24:00:00" >
			</activity>
		</plan>

	</person>

<!-- ====================================================================== -->

	<person id="pt_10_85_82">
		<plan selected="yes">
			<activity type="dummy" x="9000.0" y="8000.0" end_time="04:33:07" >
			</activity>
			<leg mode="walk">
			</leg>
			<activity type="dummy" x="6000.0" y="1000.0" end_time="24:00:00" >
			</activity>
		</plan>

	</person>

<!-- ====================================================================== -->

	<person id="pt_111_3_25">
		<plan selected="yes">
			<activity type="dummy" x="8000.0" y="2000.0" end_time="20:53:51" >
			</activity>
			<leg mode="walk">
			</leg>
			<activity type="dummy" x="9000.0" y="1000.0" end_time="24:00:00" >
			</activity>
		</plan>

	</person>

<!-- ====================================================================== -->

	<person id="pt_111_54_72">
		<plan selected="yes">
			<activity type="dummy" x="8000.0" y="2000.0" end_time="18:08:28" >
			</activity>
			<leg mode="walk">
			</leg>
			<activity type="dummy" x="3000.0" y="6000.0" end_time="24:00:00" >
			</activity>
		</plan>

	</person>

<!-- ====================================================================== -->

	<person id="pt_114_17_20">
		<plan selected="yes">
			<activity type="dummy" x="8000.0" y="5000.0" end_time="19:46:34" >
			</activity>
			<leg mode="walk">
			</leg>
			<activity type="dummy" x="10000.0" y="3000.0" end_time="24:00:00" >
			</activity>
		</plan>

	</person>

<!-- ====================================================================== -->

	<person id="pt_114_40_54">
		<plan selected="yes">
			<activity type="dummy" x="8000.0" y="5000.0" end_time="07:10:18" >
			</activity>
			<leg mode="walk">
			</leg>
			<activity type="dummy" x="2000.0" y="4000.0" end_time="24:00:00" >
			</activity>
		</plan>

	</person>

<!-- ====================================================================== -->

	<person id="pt_115_96_27">
		<plan selected="yes">
			<activity type="dummy" x="8000.0" y="6000.0" end_time="09:45:12" >
			</activity>
			<leg mode="drt">
			</leg>
			<activity type="dummy" x="7000.0" y="0.0" end_time="24:00:00" >
			</activity>
		</plan>

	</person>

<!-- ====================================================================== -->

	<person id="pt_117_84_19">
		<plan selected="yes">
			<activity type="dummy" x="8000.0" y="8000.0" end_time="17:12:59" >
			</activity>
			<leg mode="drt">
			</leg>
			<activity type="dummy" x="6000.0" y="0.0" end_time="24:00:00" >
			</activity>
		</plan>

	</person>

<!-- ====================================================================== -->

	<person id="pt_118_87_33">
		<plan selected="yes">
			<activity type="dummy" x="8000.0" y="9000.0" end_time="22:06:44" >
			</activity>
			<leg mode="drt">
			</leg>
			<activity type="dummy" x="6000.0" y="3000.0" end_time="24:00:00" >
			</activity>
		</plan>

	</person>

<!-- ====================================================================== -->

	<person id="pt_11_93_80">
		<plan selected="yes">
			<activity type="dummy" x="9000.0" y="9000.0" end_time="11:23:52" >
			</activity>
			<leg mode="drt">
			</leg>
			<activity type="dummy" x="6000.0" y="8000.0" end_time="24:00:00" >
			</activity>
		</plan>

	</person>

<!-- ====================================================================== -->

	<person id="pt_12_108_21">
		<plan selected="yes">
			<activity type="dummy" x="9000.0" y="10000.0" end_time="15:52:19" >
			</activity>
			<leg mode="drt">
			</leg>
			<activity type="dummy" x="8000.0" y="0.0" end_time="24:00:00" >
			</activity>
		</plan>

	</person>

<!-- ====================================================================== -->

	<person id="pt_12_15_50">
		<plan selected="yes">
			<activity type="dummy" x="9000.0" y="10000.0" end_time="05:24:47" >
			</activity>
			<leg mode="drt">
			</leg>
			<activity type="dummy" x="10000.0" y="1000.0" end_time="24:00:00" >
			</activity>
		</plan>

	</person>

<!-- ====================================================================== -->

	<person id="pt_12_57_79">
		<plan selected="yes">
			<activity type="dummy" x="9000.0" y="10000.0" end_time="21:57:11" >
			</activity>
			<leg mode="drt">
			</leg>
			<activity type="dummy" x="3000.0" y="8000.0" end_time="24:00:00" >
			</activity>
		</plan>

	</person>

<!-- ====================================================================== -->

	<person id="pt_13_105_56">
		<plan selected="yes">
			<activity type="dummy" x="1000.0" y="0.0" end_time="13:21:39" >
			</activity>
			<leg mode="drt">
			</leg>
			<activity type="dummy" x="7000.0" y="8000.0" end_time="24:00:00" >
			</activity>
		</plan>

	</person>

<!-- ====================================================================== -->

	<person id="pt_19_94_45">
		<plan selected="yes">
			<activity type="dummy" x="10000.0" y="5000.0" end_time="14:11:03" >
			</activity>
			<leg mode="drt">
			</leg>
			<activity type="dummy" x="6000.0" y="9000.0" end_time="24:00:00" >
			</activity>
		</plan>

	</person>

<!-- ====================================================================== -->

	<person id="pt_1_9_12">
		<plan selected="yes">
			<activity type="dummy" x="0.0" y="1000.0" end_time="10:02:21" >
			</activity>
			<leg mode="drt">
			</leg>
			<activity type="dummy" x="9000.0" y="7000.0" end_time="24:00:00" >
			</activity>
		</plan>

	</person>

<!-- ====================================================================== -->

	<person id="pt_20_35_44">
		<plan selected="yes">
			<activity type="dummy" x="10000.0" y="6000.0" end_time="19:38:44" >
			</activity>
			<leg mode="drt">
			</leg>
			<activity type="dummy" x="1000.0" y="10000.0" end_time="24:00:00" >
			</activity>
		</plan>

	</person>

<!-- ====================================================================== -->

	<person id="pt_20_50_4">
		<plan selected="yes">
			<activity type="dummy" x="10000.0" y="6000.0" end_time="02:46:21" >
			</activity>
			<leg mode="drt">
			</leg>
			<activity type="dummy" x="3000.0" y="2000.0" end_time="24:00:00" >
			</activity>
		</plan>

	</person>

<!-- ====================================================================== -->

	<person id="pt_23_55_46">
		<plan selected="yes">
			<activity type="dummy" x="10000.0" y="9000.0" end_time="16:59:11" >
			</activity>
			<leg mode="drt">
			</leg>
			<activity type="dummy" x="0.0" y="4000.0" end_time="24:00:00" >
			</activity>
		</plan>

	</person>

<!-- ====================================================================== -->

	<person id="pt_23_60_76">
		<plan selected="yes">
			<activity type="dummy" x="10000.0" y="9000.0" end_time="09:23:13" >
			</activity>
			<leg mode="drt">
			</leg>
			<activity type="dummy" x="4000.0" y="0.0" end_time="24:00:00" >
			</activity>
		</plan>

	</person>

<!-- ====================================================================== -->

	<person id="pt_26_110_23">
		<plan selected="yes">
			<activity type="dummy" x="1000.0" y="2000.0" end_time="02:00:14" >
			</activity>
			<leg mode="drt">
			</leg>
			<activity type="dummy" x="0.0" y="9000.0" end_time="24:00:00" >
			</activity>
		</plan>

	</person>

<!-- ====================================================================== -->

	<person id="pt_27_15_51">
		<plan selected="yes">
			<activity type="dummy" x="1000.0" y="3000.0" end_time="10:08:37" >
			</activity>
			<leg mode="drt">
			</leg>
			<activity type="dummy" x="10000.0" y="1000.0" end_time="24:00:00" >
			</activity>
		</plan>

	</person>

<!-- ====================================================================== -->

	<person id="pt_27_48_48">
		<plan selected="yes">
			<activity type="dummy" x="1000.0" y="3000.0" end_time="11:27:44" >
			</activity>
			<leg mode="drt">
			</leg>
			<activity type="dummy" x="3000.0" y="0.0" end_time="24:00:00" >
			</activity>
		</plan>

	</person>

<!-- ====================================================================== -->

	<person id="pt_2_14_26">
		<plan selected="yes">
			<activity type="dummy" x="0.0" y="10000.0" end_time="22:57:35" >
			</activity>
			<leg mode="drt">
			</leg>
			<activity type="dummy" x="10000.0" y="0.0" end_time="24:00:00" >
			</activity>
		</plan>

	</person>

<!-- ====================================================================== -->

	<person id="pt_2_84_22">
		<plan selected="yes">
			<activity type="dummy" x="0.0" y="10000.0" end_time="03:59:49" >
			</activity>
			<leg mode="drt">
			</leg>
			<activity type="dummy" x="6000.0" y="0.0" end_time="24:00:00" >
			</activity>
		</plan>

	</person>

<!-- ====================================================================== -->

	<person id="pt_30_104_75">
		<plan selected="yes">
			<activity type="dummy" x="1000.0" y="6000.0" end_time="18:04:12" >
			</activity>
			<leg mode="drt">
			</leg>
			<activity type="dummy" x="7000.0" y="7000.0" end_time="24:00:00" >
			</activity>
		</plan>

	</person>

<!-- ====================================================================== -->

	<person id="pt_30_88_85">
		<plan selected="yes">
			<activity type="dummy" x="1000.0" y="6000.0" end_time="14:26:21" >
			</activity>
			<leg mode="drt">
			</leg>
			<activity type="dummy" x="0.0" y="7000.0" end_time="24:00:00" >
			</activity>
		</plan>

	</person>

<!-- ====================================================================== -->

	<person id="pt_32_47_60">
		<plan selected="yes">
			<activity type="dummy" x="1000.0" y="8000.0" end_time="10:11:59" >
			</activity>
			<leg mode="drt">
			</leg>
			<activity type="dummy" x="2000.0" y="10000.0" end_time="24:00:00" >
			</activity>
		</plan>

	</person>

<!-- ====================================================================== -->

	<person id="pt_32_83_37">
		<plan selected="yes">
			<activity type="dummy" x="1000.0" y="8000.0" end_time="09:28:16" >
			</activity>
			<leg mode="drt">
			</leg>
			<activity type="dummy" x="5000.0" y="10000.0" end_time="24:00:00" >
			</activity>
		</plan>

	</person>

<!-- ====================================================================== -->

	<person id="pt_34_81_7">
		<plan selected="yes">
			<activity type="dummy" x="1000.0" y="9000.0" end_time="15:04:48" >
			</activity>
			<leg mode="drt">
			</leg>
			<activity type="dummy" x="5000.0" y="8000.0" end_time="24:00:00" >
			</activity>
		</plan>

	</person>

<!-- ====================================================================== -->

	<person id="pt_35_77_86">
		<plan selected="yes">
			<activity type="dummy" x="1000.0" y="10000.0" end_time="07:37:04" >
			</activity>
			<leg mode="drt">
			</leg>
			<activity type="dummy" x="0.0" y="6000.0" end_time="24:00:00" >
			</activity>
		</plan>

	</person>

<!-- ====================================================================== -->

	<person id="pt_38_97_98">
		<plan selected="yes">
			<activity type="dummy" x="2000.0" y="2000.0" end_time="15:50:32" >
			</activity>
			<leg mode="drt">
			</leg>
			<activity type="dummy" x="7000.0" y="1000.0" end_time="24:00:00" >
			</activity>
		</plan>

	</person>

<!-- ====================================================================== -->

	<person id="pt_39_27_41">
		<plan selected="yes">
			<activity type="dummy" x="2000.0" y="3000.0" end_time="00:46:19" >
			</activity>
			<leg mode="drt">
			</leg>
			<activity type="dummy" x="1000.0" y="3000.0" end_time="24:00:00" >
			</activity>
		</plan>

	</person>

<!-- ====================================================================== -->

	<person id="pt_3_109_81">
		<plan selected="yes">
			<activity type="dummy" x="9000.0" y="1000.0" end_time="04:18:20" >
			</activity>
			<leg mode="drt">
			</leg>
			<activity type="dummy" x="8000.0" y="1000.0" end_time="24:00:00" >
			</activity>
		</plan>

	</person>

<!-- ====================================================================== -->

	<person id="pt_3_54_95">
		<plan selected="yes">
			<activity type="dummy" x="9000.0" y="1000.0" end_time="03:32:03" >
			</activity>
			<leg mode="drt">
			</leg>
			<activity type="dummy" x="3000.0" y="6000.0" end_time="24:00:00" >
			</activity>
		</plan>

	</person>

<!-- ====================================================================== -->

	<person id="pt_41_42_39">
		<plan selected="yes">
			<activity type="dummy" x="2000.0" y="5000.0" end_time="09:53:01" >
			</activity>
			<leg mode="drt">
			</leg>
			<activity type="dummy" x="2000.0" y="6000.0" end_time="24:00:00" >
			</activity>
		</plan>

	</person>

<!-- ====================================================================== -->

	<person id="pt_41_90_58">
		<plan selected="yes">
			<activity type="dummy" x="2000.0" y="5000.0" end_time="20:56:39" >
			</activity>
			<leg mode="drt">
			</leg>
			<activity type="dummy" x="6000.0" y="5000.0" end_time="24:00:00" >
			</activity>
		</plan>

	</person>

<!-- ====================================================================== -->

	<person id="pt_42_63_91">
		<plan selected="yes">
			<activity type="dummy" x="2000.0" y="6000.0" end_time="21:05:35" >
			</activity>
			<leg mode="drt">
			</leg>
			<activity type="dummy" x="4000.0" y="3000.0" end_time="24:00:00" >
			</activity>
		</plan>

	</person>

<!-- ====================================================================== -->

	<person id="pt_43_20_92">
		<plan selected="yes">
			<activity type="dummy" x="2000.0" y="7000.0" end_time="18:18:42" >
			</activity>
			<leg mode="drt">
			</leg>
			<activity type="dummy" x="10000.0" y="6000.0" end_time="24:00:00" >
			</activity>
		</plan>

	</person>

<!-- ====================================================================== -->

	<person id="pt_44_97_89">
		<plan selected="yes">
			<activity type="dummy" x="0.0" y="3000.0" end_time="10:21:01" >
			</activity>
			<leg mode="drt">
			</leg>
			<activity type="dummy" x="7000.0" y="1000.0" end_time="24:00:00" >
			</activity>
		</plan>

	</person>

<!-- ====================================================================== -->

	<person id="pt_48_107_63">
		<plan selected="yes">
			<activity type="dummy" x="3000.0" y="0.0" end_time="10:48:11" >
			</activity>
			<leg mode="drt">
			</leg>
			<activity type="dummy" x="7000.0" y="10000.0" end_time="24:00:00" >
			</activity>
		</plan>

	</person>

<!-- ====================================================================== -->

	<person id="pt_48_16_74">
		<plan selected="yes">
			<activity type="dummy" x="3000.0" y="0.0" end_time="03:08:07" >
			</activity>
			<leg mode="drt">
			</leg>
			<activity type="dummy" x="10000.0" y="2000.0" end_time="24:00:00" >
			</activity>
		</plan>

	</person>

<!-- ====================================================================== -->

	<person id="pt_49_30_35">
		<plan selected="yes">
			<activity type="dummy" x="3000.0" y="1000.0" end_time="03:07:57" >
			</activity>
			<leg mode="drt">
			</leg>
			<activity type="dummy" x="1000.0" y="6000.0" end_time="24:00:00" >
			</activity>
		</plan>

	</person>

<!-- ====================================================================== -->

	<person id="pt_4_20_17">
		<plan selected="yes">
			<activity type="dummy" x="9000.0" y="2000.0" end_time="03:26:13" >
			</activity>
			<leg mode="drt">
			</leg>
			<activity type="dummy" x="10000.0" y="6000.0" end_time="24:00:00" >
			</activity>
		</plan>

	</person>

<!-- ====================================================================== -->

	<person id="pt_51_89_34">
		<plan selected="yes">
			<activity type="dummy" x="3000.0" y="3000.0" end_time="21:50:41" >
			</activity>
			<leg mode="drt">
			</leg>
			<activity type="dummy" x="6000.0" y="4000.0" end_time="24:00:00" >
			</activity>
		</plan>

	</person>

<!-- ====================================================================== -->

	<person id="pt_53_10_83">
		<plan selected="yes">
			<activity type="dummy" x="3000.0" y="5000.0" end_time="22:40:19" >
			</activity>
			<leg mode="drt">
			</leg>
			<activity type="dummy" x="9000.0" y="8000.0" end_time="24:00:00" >
			</activity>
		</plan>

	</person>

<!-- ====================================================================== -->

	<person id="pt_53_111_10">
		<plan selected="yes">
			<activity type="dummy" x="3000.0" y="5000.0" end_time="08:14:38" >
			</activity>
			<leg mode="drt">
			</leg>
			<activity type="dummy" x="8000.0" y="2000.0" end_time="24:00:00" >
			</activity>
		</plan>

	</person>

<!-- ====================================================================== -->

	<person id="pt_54_23_0">
		<plan selected="yes">
			<activity type="dummy" x="3000.0" y="6000.0" end_time="13:48:47" >
			</activity>
			<leg mode="drt">
			</leg>
			<activity type="dummy" x="10000.0" y="9000.0" end_time="24:00:00" >
			</activity>
		</plan>

	</person>

<!-- ====================================================================== -->

	<person id="pt_54_76_3">
		<plan selected="yes">
			<activity type="dummy" x="3000.0" y="6000.0" end_time="08:36:33" >
			</activity>
			<leg mode="drt">
			</leg>
			<activity type="dummy" x="5000.0" y="4000.0" end_time="24:00:00" >
			</activity>
		</plan>

	</person>

<!-- ====================================================================== -->

	<person id="pt_55_20_49">
		<plan selected="yes">
			<activity type="dummy" x="0.0" y="4000.0" end_time="10:11:04" >
			</activity>
			<leg mode="drt">
			</leg>
			<activity type="dummy" x="10000.0" y="6000.0" end_time="24:00:00" >
			</activity>
		</plan>

	</person>

<!-- ====================================================================== -->

	<person id="pt_55_96_57">
		<plan selected="yes">
			<activity type="dummy" x="0.0" y="4000.0" end_time="06:04:08" >
			</activity>
			<leg mode="drt">
			</leg>
			<activity type="dummy" x="7000.0" y="0.0" end_time="24:00:00" >
			</activity>
		</plan>

	</person>

<!-- ====================================================================== -->

	<person id="pt_56_100_29">
		<plan selected="yes">
			<activity type="dummy" x="3000.0" y="7000.0" end_time="04:16:00" >
			</activity>
			<leg mode="drt">
			</leg>
			<activity type="dummy" x="7000.0" y="3000.0" end_time="24:00:00" >
			</activity>
		</plan>

	</person>

<!-- ====================================================================== -->

	<person id="pt_56_33_87">
		<plan selected="yes">
			<activity type="dummy" x="3000.0" y="7000.0" end_time="23:46:35" >
			</activity>
			<leg mode="drt">
			</leg>
			<activity type="dummy" x="0.0" y="2000.0" end_time="24:00:00" >
			</activity>
		</plan>

	</person>

<!-- ====================================================================== -->

	<person id="pt_58_55_77">
		<plan selected="yes">
			<activity type="dummy" x="3000.0" y="9000.0" end_time="00:15:41" >
			</activity>
			<leg mode="drt">
			</leg>
			<activity type="dummy" x="0.0" y="4000.0" end_time="24:00:00" >
			</activity>
		</plan>

	</person>

<!-- ====================================================================== -->

	<person id="pt_58_68_8">
		<plan selected="yes">
			<activity type="dummy" x="3000.0" y="9000.0" end_time="01:20:13" >
			</activity>
			<leg mode="drt">
			</leg>
			<activity type="dummy" x="4000.0" y="7000.0" end_time="24:00:00" >
			</activity>
		</plan>

	</person>

<!-- ====================================================================== -->

	<person id="pt_59_120_52">
		<plan selected="yes">
			<activity type="dummy" x="3000.0" y="10000.0" end_time="04:03:04" >
			</activity>
			<leg mode="drt">
			</leg>
			<activity type="dummy" x="9000.0" y="0.0" end_time="24:00:00" >
			</activity>
		</plan>

	</person>

<!-- ====================================================================== -->

	<person id="pt_61_45_59">
		<plan selected="yes">
			<activity type="dummy" x="4000.0" y="1000.0" end_time="18:05:09" >
			</activity>
			<leg mode="drt">
			</leg>
			<activity type="dummy" x="2000.0" y="8000.0" end_time="24:00:00" >
			</activity>
		</plan>

	</person>

<!-- ====================================================================== -->

	<person id="pt_63_120_93">
		<plan selected="yes">
			<activity type="dummy" x="4000.0" y="3000.0" end_time="09:41:14" >
			</activity>
			<leg mode="drt">
			</leg>
			<activity type="dummy" x="9000.0" y="0.0" end_time="24:00:00" >
			</activity>
		</plan>

	</person>

<!-- ====================================================================== -->

	<person id="pt_63_75_36">
		<plan selected="yes">
			<activity type="dummy" x="4000.0" y="3000.0" end_time="06:40:59" >
			</activity>
			<leg mode="walk">
			</leg>
			<activity type="dummy" x="5000.0" y="3000.0" end_time="24:00:00" >
			</activity>
		</plan>

	</person>

<!-- ====================================================================== -->

	<person id="pt_64_0_78">
		<plan selected="yes">
			<activity type="dummy" x="4000.0" y="4000.0" end_time="17:20:52" >
			</activity>
			<leg mode="walk">
			</leg>
			<activity type="dummy" x="0.0" y="0.0" end_time="24:00:00" >
			</activity>
		</plan>

	</person>

<!-- ====================================================================== -->

	<person id="pt_64_102_6">
		<plan selected="yes">
			<activity type="dummy" x="4000.0" y="4000.0" end_time="12:56:11" >
			</activity>
			<leg mode="walk">
			</leg>
			<activity type="dummy" x="7000.0" y="5000.0" end_time="24:00:00" >
			</activity>
		</plan>

	</person>

<!-- ====================================================================== -->

	<person id="pt_64_57_64">
		<plan selected="yes">
			<activity type="dummy" x="4000.0" y="4000.0" end_time="04:24:03" >
			</activity>
			<leg mode="walk">
			</leg>
			<activity type="dummy" x="3000.0" y="8000.0" end_time="24:00:00" >
			</activity>
		</plan>

	</person>

<!-- ====================================================================== -->

	<person id="pt_65_80_69">
		<plan selected="yes">
			<activity type="dummy" x="4000.0" y="5000.0" end_time="05:20:05" >
			</activity>
			<leg mode="walk">
			</leg>
			<activity type="dummy" x="5000.0" y="7000.0" end_time="24:00:00" >
			</activity>
		</plan>

	</person>

<!-- ====================================================================== -->

	<person id="pt_6_58_2">
		<plan selected="yes">
			<activity type="dummy" x="9000.0" y="4000.0" end_time="04:34:49" >
			</activity>
			<leg mode="walk">
			</leg>
			<activity type="dummy" x="3000.0" y="9000.0" end_time="24:00:00" >
			</activity>
		</plan>

	</person>

<!-- ====================================================================== -->

	<person id="pt_70_33_66">
		<plan selected="yes">
			<activity type="dummy" x="4000.0" y="9000.0" end_time="21:54:12" >
			</activity>
			<leg mode="walk">
			</leg>
			<activity type="dummy" x="0.0" y="2000.0" end_time="24:00:00" >
			</activity>
		</plan>

	</person>

<!-- ====================================================================== -->

	<person id="pt_70_72_40">
		<plan selected="yes">
			<activity type="dummy" x="4000.0" y="9000.0" end_time="05:38:36" >
			</activity>
			<leg mode="walk">
			</leg>
			<activity type="dummy" x="5000.0" y="0.0" end_time="24:00:00" >
			</activity>
		</plan>

	</person>

<!-- ====================================================================== -->

	<person id="pt_70_99_5">
		<plan selected="yes">
			<activity type="dummy" x="4000.0" y="9000.0" end_time="06:34:24" >
			</activity>
			<leg mode="walk">
			</leg>
			<activity type="dummy" x="0.0" y="8000.0" end_time="24:00:00" >
			</activity>
		</plan>

	</person>

<!-- ====================================================================== -->

	<person id="pt_73_108_11">
		<plan selected="yes">
			<activity type="dummy" x="5000.0" y="1000.0" end_time="11:57:00" >
			</activity>
			<leg mode="walk">
			</leg>
			<activity type="dummy" x="8000.0" y="0.0" end_time="24:00:00" >
			</activity>
		</plan>

	</person>

<!-- ====================================================================== -->

	<person id="pt_73_54_61">
		<plan selected="yes">
			<activity type="dummy" x="5000.0" y="1000.0" end_time="12:08:20" >
			</activity>
			<leg mode="walk">
			</leg>
			<activity type="dummy" x="3000.0" y="6000.0" end_time="24:00:00" >
			</activity>
		</plan>

	</person>

<!-- ====================================================================== -->

	<person id="pt_75_66_9">
		<plan selected="yes">
			<activity type="dummy" x="5000.0" y="3000.0" end_time="05:15:53" >
			</activity>
			<leg mode="walk">
			</leg>
			<activity type="dummy" x="0.0" y="5000.0" end_time="24:00:00" >
			</activity>
		</plan>

	</person>

<!-- ====================================================================== -->

	<person id="pt_76_20_90">
		<plan selected="yes">
			<activity type="dummy" x="5000.0" y="4000.0" end_time="00:08:02" >
			</activity>
			<leg mode="walk">
			</leg>
			<activity type="dummy" x="10000.0" y="6000.0" end_time="24:00:00" >
			</activity>
		</plan>

	</person>

<!-- ====================================================================== -->

	<person id="pt_76_80_13">
		<plan selected="yes">
			<activity type="dummy" x="5000.0" y="4000.0" end_time="23:01:24" >
			</activity>
			<leg mode="walk">
			</leg>
			<activity type="dummy" x="5000.0" y="7000.0" end_time="24:00:00" >
			</activity>
		</plan>

	</person>

<!-- ====================================================================== -->

	<person id="pt_78_55_97">
		<plan selected="yes">
			<activity type="dummy" x="5000.0" y="5000.0" end_time="04:25:55" >
			</activity>
			<leg mode="walk">
			</leg>
			<activity type="dummy" x="0.0" y="4000.0" end_time="24:00:00" >
			</activity>
		</plan>

	</person>

<!-- ====================================================================== -->

	<person id="pt_78_91_55">
		<plan selected="yes">
			<activity type="dummy" x="5000.0" y="5000.0" end_time="19:56:00" >
			</activity>
			<leg mode="walk">
			</leg>
			<activity type="dummy" x="6000.0" y="6000.0" end_time="24:00:00" >
			</activity>
		</plan>

	</person>

<!-- ====================================================================== -->

	<person id="pt_7_53_30">
		<plan selected="yes">
			<activity type="dummy" x="9000.0" y="5000.0" end_time="09:34:13" >
			</activity>
			<leg mode="walk">
			</leg>
			<activity type="dummy" x="3000.0" y="5000.0" end_time="24:00:00" >
			</activity>
		</plan>

	</person>

<!-- ====================================================================== -->

	<person id="pt_7_75_73">
		<plan selected="yes">
			<activity type="dummy" x="9000.0" y="5000.0" end_time="02:24:08" >
			</activity>
			<leg mode="walk">
			</leg>
			<activity type="dummy" x="5000.0" y="3000.0" end_time="24:00:00" >
			</activity>
		</plan>

	</person>

<!-- ====================================================================== -->

	<person id="pt_82_58_38">
		<plan selected="yes">
			<activity type="dummy" x="5000.0" y="9000.0" end_time="18:53:20" >
			</activity>
			<leg mode="walk">
			</leg>
			<activity type="dummy" x="3000.0" y="9000.0" end_time="24:00:00" >
			</activity>
		</plan>

	</person>

<!-- ====================================================================== -->
