<?xml version="1.0" encoding="UTF-8"?>
<!DOCTYPE transitSchedule SYSTEM "http://www.matsim.org/files/dtd/transitSchedule_v2.dtd">

<transitSchedule>

	<transitStops>
		<stopFacility id="0" x="3000.0" y="1000.0" linkRefId="23_34" isBlocking="false"/>
		<stopFacility id="1" x="5000.0" y="1000.0" linkRefId="45_56" isBlocking="false"/>
		<stopFacility id="10" x="3000.0" y="1000.0" linkRefId="45_34" isBlocking="false"/>
		<stopFacility id="100" x="1000.0" y="7000.0" linkRefId="19_18" isBlocking="false"/>
		<stopFacility id="101" x="1000.0" y="5000.0" linkRefId="17_16" isBlocking="false"/>
		<stopFacility id="102" x="1000.0" y="3000.0" linkRefId="15_14" isBlocking="false"/>
		<stopFacility id="103" x="1000.0" y="1000.0" linkRefId="13_12" isBlocking="false"/>
		<stopFacility id="104" x="1000.0" y="7000.0" linkRefId="19_18" isBlocking="false"/>
		<stopFacility id="105" x="1000.0" y="5000.0" linkRefId="17_16" isBlocking="false"/>
		<stopFacility id="106" x="1000.0" y="3000.0" linkRefId="15_14" isBlocking="false"/>
		<stopFacility id="107" x="1000.0" y="1000.0" linkRefId="13_12" isBlocking="false"/>
		<stopFacility id="108" x="1000.0" y="3000.0" linkRefId="13_14" isBlocking="false"/>
		<stopFacility id="109" x="1000.0" y="5000.0" linkRefId="15_16" isBlocking="false"/>
		<stopFacility id="11" x="1000.0" y="1000.0" linkRefId="23_12" isBlocking="false"/>
		<stopFacility id="110" x="1000.0" y="7000.0" linkRefId="17_18" isBlocking="false"/>
		<stopFacility id="111" x="1000.0" y="9000.0" linkRefId="19_20" isBlocking="false"/>
		<stopFacility id="112" x="3000.0" y="3000.0" linkRefId="35_36" isBlocking="false"/>
		<stopFacility id="113" x="3000.0" y="5000.0" linkRefId="37_38" isBlocking="false"/>
		<stopFacility id="114" x="3000.0" y="7000.0" linkRefId="39_40" isBlocking="false"/>
		<stopFacility id="115" x="3000.0" y="9000.0" linkRefId="41_42" isBlocking="false"/>
		<stopFacility id="116" x="3000.0" y="7000.0" linkRefId="41_40" isBlocking="false"/>
		<stopFacility id="117" x="3000.0" y="5000.0" linkRefId="39_38" isBlocking="false"/>
		<stopFacility id="118" x="3000.0" y="3000.0" linkRefId="37_36" isBlocking="false"/>
		<stopFacility id="119" x="3000.0" y="1000.0" linkRefId="35_34" isBlocking="false"/>
		<stopFacility id="12" x="3000.0" y="1000.0" linkRefId="23_34" isBlocking="false"/>
		<stopFacility id="120" x="3000.0" y="7000.0" linkRefId="41_40" isBlocking="false"/>
		<stopFacility id="121" x="3000.0" y="5000.0" linkRefId="39_38" isBlocking="false"/>
		<stopFacility id="122" x="3000.0" y="3000.0" linkRefId="37_36" isBlocking="false"/>
		<stopFacility id="123" x="3000.0" y="1000.0" linkRefId="35_34" isBlocking="false"/>
		<stopFacility id="124" x="3000.0" y="3000.0" linkRefId="35_36" isBlocking="false"/>
		<stopFacility id="125" x="3000.0" y="5000.0" linkRefId="37_38" isBlocking="false"/>
		<stopFacility id="126" x="3000.0" y="7000.0" linkRefId="39_40" isBlocking="false"/>
		<stopFacility id="127" x="3000.0" y="9000.0" linkRefId="41_42" isBlocking="false"/>
		<stopFacility id="128" x="5000.0" y="3000.0" linkRefId="57_58" isBlocking="false"/>
		<stopFacility id="129" x="5000.0" y="5000.0" linkRefId="59_60" isBlocking="false"/>
		<stopFacility id="13" x="5000.0" y="1000.0" linkRefId="45_56" isBlocking="false"/>
		<stopFacility id="130" x="5000.0" y="7000.0" linkRefId="61_62" isBlocking="false"/>
		<stopFacility id="131" x="5000.0" y="9000.0" linkRefId="63_64" isBlocking="false"/>
		<stopFacility id="132" x="5000.0" y="7000.0" linkRefId="63_62" isBlocking="false"/>
		<stopFacility id="133" x="5000.0" y="5000.0" linkRefId="61_60" isBlocking="false"/>
		<stopFacility id="134" x="5000.0" y="3000.0" linkRefId="59_58" isBlocking="false"/>
		<stopFacility id="135" x="5000.0" y="1000.0" linkRefId="57_56" isBlocking="false"/>
		<stopFacility id="136" x="5000.0" y="7000.0" linkRefId="63_62" isBlocking="false"/>
		<stopFacility id="137" x="5000.0" y="5000.0" linkRefId="61_60" isBlocking="false"/>
		<stopFacility id="138" x="5000.0" y="3000.0" linkRefId="59_58" isBlocking="false"/>
		<stopFacility id="139" x="5000.0" y="1000.0" linkRefId="57_56" isBlocking="false"/>
		<stopFacility id="14" x="7000.0" y="1000.0" linkRefId="67_78" isBlocking="false"/>
		<stopFacility id="140" x="5000.0" y="3000.0" linkRefId="57_58" isBlocking="false"/>
		<stopFacility id="141" x="5000.0" y="5000.0" linkRefId="59_60" isBlocking="false"/>
		<stopFacility id="142" x="5000.0" y="7000.0" linkRefId="61_62" isBlocking="false"/>
		<stopFacility id="143" x="5000.0" y="9000.0" linkRefId="63_64" isBlocking="false"/>
		<stopFacility id="144" x="7000.0" y="3000.0" linkRefId="79_80" isBlocking="false"/>
		<stopFacility id="145" x="7000.0" y="5000.0" linkRefId="81_82" isBlocking="false"/>
		<stopFacility id="146" x="7000.0" y="7000.0" linkRefId="83_84" isBlocking="false"/>
		<stopFacility id="147" x="7000.0" y="9000.0" linkRefId="85_86" isBlocking="false"/>
		<stopFacility id="148" x="7000.0" y="7000.0" linkRefId="85_84" isBlocking="false"/>
		<stopFacility id="149" x="7000.0" y="5000.0" linkRefId="83_82" isBlocking="false"/>
		<stopFacility id="15" x="9000.0" y="1000.0" linkRefId="89_100" isBlocking="false"/>
		<stopFacility id="150" x="7000.0" y="3000.0" linkRefId="81_80" isBlocking="false"/>
		<stopFacility id="151" x="7000.0" y="1000.0" linkRefId="79_78" isBlocking="false"/>
		<stopFacility id="152" x="7000.0" y="7000.0" linkRefId="85_84" isBlocking="false"/>
		<stopFacility id="153" x="7000.0" y="5000.0" linkRefId="83_82" isBlocking="false"/>
		<stopFacility id="154" x="7000.0" y="3000.0" linkRefId="81_80" isBlocking="false"/>
		<stopFacility id="155" x="7000.0" y="1000.0" linkRefId="79_78" isBlocking="false"/>
		<stopFacility id="156" x="7000.0" y="3000.0" linkRefId="79_80" isBlocking="false"/>
		<stopFacility id="157" x="7000.0" y="5000.0" linkRefId="81_82" isBlocking="false"/>
		<stopFacility id="158" x="7000.0" y="7000.0" linkRefId="83_84" isBlocking="false"/>
		<stopFacility id="159" x="7000.0" y="9000.0" linkRefId="85_86" isBlocking="false"/>
		<stopFacility id="16" x="3000.0" y="3000.0" linkRefId="25_36" isBlocking="false"/>
		<stopFacility id="17" x="5000.0" y="3000.0" linkRefId="47_58" isBlocking="false"/>
		<stopFacility id="18" x="7000.0" y="3000.0" linkRefId="69_80" isBlocking="false"/>
		<stopFacility id="19" x="9000.0" y="3000.0" linkRefId="91_102" isBlocking="false"/>
		<stopFacility id="2" x="7000.0" y="1000.0" linkRefId="67_78" isBlocking="false"/>
		<stopFacility id="20" x="7000.0" y="3000.0" linkRefId="91_80" isBlocking="false"/>
		<stopFacility id="21" x="5000.0" y="3000.0" linkRefId="69_58" isBlocking="false"/>
		<stopFacility id="22" x="3000.0" y="3000.0" linkRefId="47_36" isBlocking="false"/>
		<stopFacility id="23" x="1000.0" y="3000.0" linkRefId="25_14" isBlocking="false"/>
		<stopFacility id="24" x="7000.0" y="3000.0" linkRefId="91_80" isBlocking="false"/>
		<stopFacility id="25" x="5000.0" y="3000.0" linkRefId="69_58" isBlocking="false"/>
		<stopFacility id="26" x="3000.0" y="3000.0" linkRefId="47_36" isBlocking="false"/>
		<stopFacility id="27" x="1000.0" y="3000.0" linkRefId="25_14" isBlocking="false"/>
		<stopFacility id="28" x="3000.0" y="3000.0" linkRefId="25_36" isBlocking="false"/>
		<stopFacility id="29" x="5000.0" y="3000.0" linkRefId="47_58" isBlocking="false"/>
		<stopFacility id="3" x="9000.0" y="1000.0" linkRefId="89_100" isBlocking="false"/>
		<stopFacility id="30" x="7000.0" y="3000.0" linkRefId="69_80" isBlocking="false"/>
		<stopFacility id="31" x="9000.0" y="3000.0" linkRefId="91_102" isBlocking="false"/>
		<stopFacility id="32" x="3000.0" y="5000.0" linkRefId="27_38" isBlocking="false"/>
		<stopFacility id="33" x="5000.0" y="5000.0" linkRefId="49_60" isBlocking="false"/>
		<stopFacility id="34" x="7000.0" y="5000.0" linkRefId="71_82" isBlocking="false"/>
		<stopFacility id="35" x="9000.0" y="5000.0" linkRefId="93_104" isBlocking="false"/>
		<stopFacility id="36" x="7000.0" y="5000.0" linkRefId="93_82" isBlocking="false"/>
		<stopFacility id="37" x="5000.0" y="5000.0" linkRefId="71_60" isBlocking="false"/>
		<stopFacility id="38" x="3000.0" y="5000.0" linkRefId="49_38" isBlocking="false"/>
		<stopFacility id="39" x="1000.0" y="5000.0" linkRefId="27_16" isBlocking="false"/>
		<stopFacility id="4" x="7000.0" y="1000.0" linkRefId="89_78" isBlocking="false"/>
		<stopFacility id="40" x="7000.0" y="5000.0" linkRefId="93_82" isBlocking="false"/>
		<stopFacility id="41" x="5000.0" y="5000.0" linkRefId="71_60" isBlocking="false"/>
		<stopFacility id="42" x="3000.0" y="5000.0" linkRefId="49_38" isBlocking="false"/>
		<stopFacility id="43" x="1000.0" y="5000.0" linkRefId="27_16" isBlocking="false"/>
		<stopFacility id="44" x="3000.0" y="5000.0" linkRefId="27_38" isBlocking="false"/>
		<stopFacility id="45" x="5000.0" y="5000.0" linkRefId="49_60" isBlocking="false"/>
		<stopFacility id="46" x="7000.0" y="5000.0" linkRefId="71_82" isBlocking="false"/>
		<stopFacility id="47" x="9000.0" y="5000.0" linkRefId="93_104" isBlocking="false"/>
		<stopFacility id="48" x="3000.0" y="7000.0" linkRefId="29_40" isBlocking="false"/>
		<stopFacility id="49" x="5000.0" y="7000.0" linkRefId="51_62" isBlocking="false"/>
		<stopFacility id="5" x="5000.0" y="1000.0" linkRefId="67_56" isBlocking="false"/>
		<stopFacility id="50" x="7000.0" y="7000.0" linkRefId="73_84" isBlocking="false"/>
		<stopFacility id="51" x="9000.0" y="7000.0" linkRefId="95_106" isBlocking="false"/>
		<stopFacility id="52" x="7000.0" y="7000.0" linkRefId="95_84" isBlocking="false"/>
		<stopFacility id="53" x="5000.0" y="7000.0" linkRefId="73_62" isBlocking="false"/>
		<stopFacility id="54" x="3000.0" y="7000.0" linkRefId="51_40" isBlocking="false"/>
		<stopFacility id="55" x="1000.0" y="7000.0" linkRefId="29_18" isBlocking="false"/>
		<stopFacility id="56" x="7000.0" y="7000.0" linkRefId="95_84" isBlocking="false"/>
		<stopFacility id="57" x="5000.0" y="7000.0" linkRefId="73_62" isBlocking="false"/>
		<stopFacility id="58" x="3000.0" y="7000.0" linkRefId="51_40" isBlocking="false"/>
		<stopFacility id="59" x="1000.0" y="7000.0" linkRefId="29_18" isBlocking="false"/>
		<stopFacility id="6" x="3000.0" y="1000.0" linkRefId="45_34" isBlocking="false"/>
		<stopFacility id="60" x="3000.0" y="7000.0" linkRefId="29_40" isBlocking="false"/>
		<stopFacility id="61" x="5000.0" y="7000.0" linkRefId="51_62" isBlocking="false"/>
		<stopFacility id="62" x="7000.0" y="7000.0" linkRefId="73_84" isBlocking="false"/>
		<stopFacility id="63" x="9000.0" y="7000.0" linkRefId="95_106" isBlocking="false"/>
		<stopFacility id="64" x="3000.0" y="9000.0" linkRefId="31_42" isBlocking="false"/>
		<stopFacility id="65" x="5000.0" y="9000.0" linkRefId="53_64" isBlocking="false"/>
		<stopFacility id="66" x="7000.0" y="9000.0" linkRefId="75_86" isBlocking="false"/>
		<stopFacility id="67" x="9000.0" y="9000.0" linkRefId="97_108" isBlocking="false"/>
		<stopFacility id="68" x="7000.0" y="9000.0" linkRefId="97_86" isBlocking="false"/>
		<stopFacility id="69" x="5000.0" y="9000.0" linkRefId="75_64" isBlocking="false"/>
		<stopFacility id="7" x="1000.0" y="1000.0" linkRefId="23_12" isBlocking="false"/>
		<stopFacility id="70" x="3000.0" y="9000.0" linkRefId="53_42" isBlocking="false"/>
		<stopFacility id="71" x="1000.0" y="9000.0" linkRefId="31_20" isBlocking="false"/>
		<stopFacility id="72" x="7000.0" y="9000.0" linkRefId="97_86" isBlocking="false"/>
		<stopFacility id="73" x="5000.0" y="9000.0" linkRefId="75_64" isBlocking="false"/>
		<stopFacility id="74" x="3000.0" y="9000.0" linkRefId="53_42" isBlocking="false"/>
		<stopFacility id="75" x="1000.0" y="9000.0" linkRefId="31_20" isBlocking="false"/>
		<stopFacility id="76" x="3000.0" y="9000.0" linkRefId="31_42" isBlocking="false"/>
		<stopFacility id="77" x="5000.0" y="9000.0" linkRefId="53_64" isBlocking="false"/>
		<stopFacility id="78" x="7000.0" y="9000.0" linkRefId="75_86" isBlocking="false"/>
		<stopFacility id="79" x="9000.0" y="9000.0" linkRefId="97_108" isBlocking="false"/>
		<stopFacility id="8" x="7000.0" y="1000.0" linkRefId="89_78" isBlocking="false"/>
		<stopFacility id="80" x="9000.0" y="3000.0" linkRefId="101_102" isBlocking="false"/>
		<stopFacility id="81" x="9000.0" y="5000.0" linkRefId="103_104" isBlocking="false"/>
		<stopFacility id="82" x="9000.0" y="7000.0" linkRefId="105_106" isBlocking="false"/>
		<stopFacility id="83" x="9000.0" y="9000.0" linkRefId="107_108" isBlocking="false"/>
		<stopFacility id="84" x="9000.0" y="7000.0" linkRefId="107_106" isBlocking="false"/>
		<stopFacility id="85" x="9000.0" y="5000.0" linkRefId="105_104" isBlocking="false"/>
		<stopFacility id="86" x="9000.0" y="3000.0" linkRefId="103_102" isBlocking="false"/>
		<stopFacility id="87" x="9000.0" y="1000.0" linkRefId="101_100" isBlocking="false"/>
		<stopFacility id="88" x="9000.0" y="7000.0" linkRefId="107_106" isBlocking="false"/>
		<stopFacility id="89" x="9000.0" y="5000.0" linkRefId="105_104" isBlocking="false"/>
		<stopFacility id="9" x="5000.0" y="1000.0" linkRefId="67_56" isBlocking="false"/>
		<stopFacility id="90" x="9000.0" y="3000.0" linkRefId="103_102" isBlocking="false"/>
		<stopFacility id="91" x="9000.0" y="1000.0" linkRefId="101_100" isBlocking="false"/>
		<stopFacility id="92" x="9000.0" y="3000.0" linkRefId="101_102" isBlocking="false"/>
		<stopFacility id="93" x="9000.0" y="5000.0" linkRefId="103_104" isBlocking="false"/>
		<stopFacility id="94" x="9000.0" y="7000.0" linkRefId="105_106" isBlocking="false"/>
		<stopFacility id="95" x="9000.0" y="9000.0" linkRefId="107_108" isBlocking="false"/>
		<stopFacility id="96" x="1000.0" y="3000.0" linkRefId="13_14" isBlocking="false"/>
		<stopFacility id="97" x="1000.0" y="5000.0" linkRefId="15_16" isBlocking="false"/>
		<stopFacility id="98" x="1000.0" y="7000.0" linkRefId="17_18" isBlocking="false"/>
		<stopFacility id="99" x="1000.0" y="9000.0" linkRefId="19_20" isBlocking="false"/>
	</transitStops>
	<transitLine id="Line0">
		<transitRoute id="0">
			<transportMode>train</transportMode>
			<routeProfile>
				<stop refId="0" arrivalOffset="-00:00:30" departureOffset="00:00:00" awaitDeparture="true"/>
				<stop refId="1" arrivalOffset="00:04:00" departureOffset="00:04:30" awaitDeparture="true"/>
				<stop refId="2" arrivalOffset="00:08:30" departureOffset="00:09:00" awaitDeparture="true"/>
				<stop refId="3" arrivalOffset="00:13:00" departureOffset="00:13:30" awaitDeparture="true"/>
				<stop refId="4" arrivalOffset="00:17:30" departureOffset="00:18:00" awaitDeparture="true"/>
				<stop refId="5" arrivalOffset="00:22:00" departureOffset="00:22:30" awaitDeparture="true"/>
				<stop refId="6" arrivalOffset="00:26:30" departureOffset="00:27:00" awaitDeparture="true"/>
				<stop refId="7" arrivalOffset="00:31:00" departureOffset="00:31:30" awaitDeparture="true"/>
			</routeProfile>
			<route>
				<link refId="12_23"/>
				<link refId="23_34"/>
				<link refId="34_45"/>
				<link refId="45_56"/>
				<link refId="56_67"/>
				<link refId="67_78"/>
				<link refId="78_89"/>
				<link refId="89_100"/>
				<link refId="100_89"/>
				<link refId="89_78"/>
				<link refId="78_67"/>
				<link refId="67_56"/>
				<link refId="56_45"/>
				<link refId="45_34"/>
				<link refId="34_23"/>
				<link refId="23_12"/>
			</route>
			<departures>
				<departure id="0" departureTime="00:00:00" vehicleRefId="tr_0_0"/>
				<departure id="1" departureTime="00:15:00" vehicleRefId="tr_0_1"/>
				<departure id="10" departureTime="02:30:00" vehicleRefId="tr_0_3"/>
				<departure id="11" departureTime="02:45:00" vehicleRefId="tr_0_4"/>
				<departure id="12" departureTime="03:00:00" vehicleRefId="tr_0_5"/>
				<departure id="13" departureTime="03:15:00" vehicleRefId="tr_0_6"/>
				<departure id="14" departureTime="03:30:00" vehicleRefId="tr_0_0"/>
				<departure id="15" departureTime="03:45:00" vehicleRefId="tr_0_1"/>
				<departure id="16" departureTime="04:00:00" vehicleRefId="tr_0_2"/>
				<departure id="17" departureTime="04:15:00" vehicleRefId="tr_0_3"/>
				<departure id="18" departureTime="04:30:00" vehicleRefId="tr_0_4"/>
				<departure id="19" departureTime="04:45:00" vehicleRefId="tr_0_5"/>
				<departure id="2" departureTime="00:30:00" vehicleRefId="tr_0_2"/>
				<departure id="20" departureTime="05:00:00" vehicleRefId="tr_0_6"/>
				<departure id="21" departureTime="05:15:00" vehicleRefId="tr_0_0"/>
				<departure id="22" departureTime="05:30:00" vehicleRefId="tr_0_1"/>
				<departure id="23" departureTime="05:45:00" vehicleRefId="tr_0_2"/>
				<departure id="24" departureTime="06:00:00" vehicleRefId="tr_0_3"/>
				<departure id="25" departureTime="06:15:00" vehicleRefId="tr_0_4"/>
				<departure id="26" departureTime="06:30:00" vehicleRefId="tr_0_5"/>
				<departure id="27" departureTime="06:45:00" vehicleRefId="tr_0_6"/>
				<departure id="28" departureTime="07:00:00" vehicleRefId="tr_0_0"/>
				<departure id="29" departureTime="07:15:00" vehicleRefId="tr_0_1"/>
				<departure id="3" departureTime="00:45:00" vehicleRefId="tr_0_3"/>
				<departure id="30" departureTime="07:30:00" vehicleRefId="tr_0_2"/>
				<departure id="31" departureTime="07:45:00" vehicleRefId="tr_0_3"/>
				<departure id="32" departureTime="08:00:00" vehicleRefId="tr_0_4"/>
				<departure id="33" departureTime="08:15:00" vehicleRefId="tr_0_5"/>
				<departure id="34" departureTime="08:30:00" vehicleRefId="tr_0_6"/>
				<departure id="35" departureTime="08:45:00" vehicleRefId="tr_0_0"/>
				<departure id="36" departureTime="09:00:00" vehicleRefId="tr_0_1"/>
				<departure id="37" departureTime="09:15:00" vehicleRefId="tr_0_2"/>
				<departure id="38" departureTime="09:30:00" vehicleRefId="tr_0_3"/>
				<departure id="39" departureTime="09:45:00" vehicleRefId="tr_0_4"/>
				<departure id="4" departureTime="01:00:00" vehicleRefId="tr_0_4"/>
				<departure id="40" departureTime="10:00:00" vehicleRefId="tr_0_5"/>
				<departure id="41" departureTime="10:15:00" vehicleRefId="tr_0_6"/>
				<departure id="42" departureTime="10:30:00" vehicleRefId="tr_0_0"/>
				<departure id="43" departureTime="10:45:00" vehicleRefId="tr_0_1"/>
				<departure id="44" departureTime="11:00:00" vehicleRefId="tr_0_2"/>
				<departure id="45" departureTime="11:15:00" vehicleRefId="tr_0_3"/>
				<departure id="46" departureTime="11:30:00" vehicleRefId="tr_0_4"/>
				<departure id="47" departureTime="11:45:00" vehicleRefId="tr_0_5"/>
				<departure id="48" departureTime="12:00:00" vehicleRefId="tr_0_6"/>
				<departure id="49" departureTime="12:15:00" vehicleRefId="tr_0_0"/>
				<departure id="5" departureTime="01:15:00" vehicleRefId="tr_0_5"/>
				<departure id="50" departureTime="12:30:00" vehicleRefId="tr_0_1"/>
				<departure id="51" departureTime="12:45:00" vehicleRefId="tr_0_2"/>
				<departure id="52" departureTime="13:00:00" vehicleRefId="tr_0_3"/>
				<departure id="53" departureTime="13:15:00" vehicleRefId="tr_0_4"/>
				<departure id="54" departureTime="13:30:00" vehicleRefId="tr_0_5"/>
				<departure id="55" departureTime="13:45:00" vehicleRefId="tr_0_6"/>
				<departure id="56" departureTime="14:00:00" vehicleRefId="tr_0_0"/>
				<departure id="57" departureTime="14:15:00" vehicleRefId="tr_0_1"/>
				<departure id="58" departureTime="14:30:00" vehicleRefId="tr_0_2"/>
				<departure id="59" departureTime="14:45:00" vehicleRefId="tr_0_3"/>
				<departure id="6" departureTime="01:30:00" vehicleRefId="tr_0_6"/>
				<departure id="60" departureTime="15:00:00" vehicleRefId="tr_0_4"/>
				<departure id="61" departureTime="15:15:00" vehicleRefId="tr_0_5"/>
				<departure id="62" departureTime="15:30:00" vehicleRefId="tr_0_6"/>
				<departure id="63" departureTime="15:45:00" vehicleRefId="tr_0_0"/>
				<departure id="64" departureTime="16:00:00" vehicleRefId="tr_0_1"/>
				<departure id="65" departureTime="16:15:00" vehicleRefId="tr_0_2"/>
				<departure id="66" departureTime="16:30:00" vehicleRefId="tr_0_3"/>
				<departure id="67" departureTime="16:45:00" vehicleRefId="tr_0_4"/>
				<departure id="68" departureTime="17:00:00" vehicleRefId="tr_0_5"/>
				<departure id="69" departureTime="17:15:00" vehicleRefId="tr_0_6"/>
				<departure id="7" departureTime="01:45:00" vehicleRefId="tr_0_0"/>
				<departure id="70" departureTime="17:30:00" vehicleRefId="tr_0_0"/>
				<departure id="71" departureTime="17:45:00" vehicleRefId="tr_0_1"/>
				<departure id="72" departureTime="18:00:00" vehicleRefId="tr_0_2"/>
				<departure id="73" departureTime="18:15:00" vehicleRefId="tr_0_3"/>
				<departure id="74" departureTime="18:30:00" vehicleRefId="tr_0_4"/>
				<departure id="75" departureTime="18:45:00" vehicleRefId="tr_0_5"/>
				<departure id="76" departureTime="19:00:00" vehicleRefId="tr_0_6"/>
				<departure id="77" departureTime="19:15:00" vehicleRefId="tr_0_0"/>
				<departure id="78" departureTime="19:30:00" vehicleRefId="tr_0_1"/>
				<departure id="79" departureTime="19:45:00" vehicleRefId="tr_0_2"/>
				<departure id="8" departureTime="02:00:00" vehicleRefId="tr_0_1"/>
				<departure id="80" departureTime="20:00:00" vehicleRefId="tr_0_3"/>
				<departure id="81" departureTime="20:15:00" vehicleRefId="tr_0_4"/>
				<departure id="82" departureTime="20:30:00" vehicleRefId="tr_0_5"/>
				<departure id="83" departureTime="20:45:00" vehicleRefId="tr_0_6"/>
				<departure id="84" departureTime="21:00:00" vehicleRefId="tr_0_0"/>
				<departure id="85" departureTime="21:15:00" vehicleRefId="tr_0_1"/>
				<departure id="86" departureTime="21:30:00" vehicleRefId="tr_0_2"/>
				<departure id="87" departureTime="21:45:00" vehicleRefId="tr_0_3"/>
				<departure id="88" departureTime="22:00:00" vehicleRefId="tr_0_4"/>
				<departure id="89" departureTime="22:15:00" vehicleRefId="tr_0_5"/>
				<departure id="9" departureTime="02:15:00" vehicleRefId="tr_0_2"/>
				<departure id="90" departureTime="22:30:00" vehicleRefId="tr_0_6"/>
				<departure id="91" departureTime="22:45:00" vehicleRefId="tr_0_0"/>
				<departure id="92" departureTime="23:00:00" vehicleRefId="tr_0_1"/>
				<departure id="93" departureTime="23:15:00" vehicleRefId="tr_0_2"/>
				<departure id="94" departureTime="23:30:00" vehicleRefId="tr_0_3"/>
				<departure id="95" departureTime="23:45:00" vehicleRefId="tr_0_4"/>
			</departures>
		</transitRoute>
	</transitLine>
	<transitLine id="Line1">
		<transitRoute id="1">
			<transportMode>train</transportMode>
			<routeProfile>
				<stop refId="8" arrivalOffset="-00:00:30" departureOffset="00:00:00" awaitDeparture="true"/>
				<stop refId="9" arrivalOffset="00:04:00" departureOffset="00:04:30" awaitDeparture="true"/>
				<stop refId="10" arrivalOffset="00:08:30" departureOffset="00:09:00" awaitDeparture="true"/>
				<stop refId="11" arrivalOffset="00:13:00" departureOffset="00:13:30" awaitDeparture="true"/>
				<stop refId="12" arrivalOffset="00:17:30" departureOffset="00:18:00" awaitDeparture="true"/>
				<stop refId="13" arrivalOffset="00:22:00" departureOffset="00:22:30" awaitDeparture="true"/>
				<stop refId="14" arrivalOffset="00:26:30" departureOffset="00:27:00" awaitDeparture="true"/>
				<stop refId="15" arrivalOffset="00:31:00" departureOffset="00:31:30" awaitDeparture="true"/>
			</routeProfile>
			<route>
				<link refId="100_89"/>
				<link refId="89_78"/>
				<link refId="78_67"/>
				<link refId="67_56"/>
				<link refId="56_45"/>
				<link refId="45_34"/>
				<link refId="34_23"/>
				<link refId="23_12"/>
				<link refId="12_23"/>
				<link refId="23_34"/>
				<link refId="34_45"/>
				<link refId="45_56"/>
				<link refId="56_67"/>
				<link refId="67_78"/>
				<link refId="78_89"/>
				<link refId="89_100"/>
			</route>
			<departures>
				<departure id="0" departureTime="00:00:00" vehicleRefId="tr_1_0"/>
				<departure id="1" departureTime="00:15:00" vehicleRefId="tr_1_1"/>
				<departure id="10" departureTime="02:30:00" vehicleRefId="tr_1_3"/>
				<departure id="11" departureTime="02:45:00" vehicleRefId="tr_1_4"/>
				<departure id="12" departureTime="03:00:00" vehicleRefId="tr_1_5"/>
				<departure id="13" departureTime="03:15:00" vehicleRefId="tr_1_6"/>
				<departure id="14" departureTime="03:30:00" vehicleRefId="tr_1_0"/>
				<departure id="15" departureTime="03:45:00" vehicleRefId="tr_1_1"/>
				<departure id="16" departureTime="04:00:00" vehicleRefId="tr_1_2"/>
				<departure id="17" departureTime="04:15:00" vehicleRefId="tr_1_3"/>
				<departure id="18" departureTime="04:30:00" vehicleRefId="tr_1_4"/>
				<departure id="19" departureTime="04:45:00" vehicleRefId="tr_1_5"/>
				<departure id="2" departureTime="00:30:00" vehicleRefId="tr_1_2"/>
				<departure id="20" departureTime="05:00:00" vehicleRefId="tr_1_6"/>
				<departure id="21" departureTime="05:15:00" vehicleRefId="tr_1_0"/>
				<departure id="22" departureTime="05:30:00" vehicleRefId="tr_1_1"/>
				<departure id="23" departureTime="05:45:00" vehicleRefId="tr_1_2"/>
				<departure id="24" departureTime="06:00:00" vehicleRefId="tr_1_3"/>
				<departure id="25" departureTime="06:15:00" vehicleRefId="tr_1_4"/>
				<departure id="26" departureTime="06:30:00" vehicleRefId="tr_1_5"/>
				<departure id="27" departureTime="06:45:00" vehicleRefId="tr_1_6"/>
				<departure id="28" departureTime="07:00:00" vehicleRefId="tr_1_0"/>
				<departure id="29" departureTime="07:15:00" vehicleRefId="tr_1_1"/>
				<departure id="3" departureTime="00:45:00" vehicleRefId="tr_1_3"/>
				<departure id="30" departureTime="07:30:00" vehicleRefId="tr_1_2"/>
				<departure id="31" departureTime="07:45:00" vehicleRefId="tr_1_3"/>
				<departure id="32" departureTime="08:00:00" vehicleRefId="tr_1_4"/>
				<departure id="33" departureTime="08:15:00" vehicleRefId="tr_1_5"/>
				<departure id="34" departureTime="08:30:00" vehicleRefId="tr_1_6"/>
				<departure id="35" departureTime="08:45:00" vehicleRefId="tr_1_0"/>
				<departure id="36" departureTime="09:00:00" vehicleRefId="tr_1_1"/>
				<departure id="37" departureTime="09:15:00" vehicleRefId="tr_1_2"/>
				<departure id="38" departureTime="09:30:00" vehicleRefId="tr_1_3"/>
				<departure id="39" departureTime="09:45:00" vehicleRefId="tr_1_4"/>
				<departure id="4" departureTime="01:00:00" vehicleRefId="tr_1_4"/>
				<departure id="40" departureTime="10:00:00" vehicleRefId="tr_1_5"/>
				<departure id="41" departureTime="10:15:00" vehicleRefId="tr_1_6"/>
				<departure id="42" departureTime="10:30:00" vehicleRefId="tr_1_0"/>
				<departure id="43" departureTime="10:45:00" vehicleRefId="tr_1_1"/>
				<departure id="44" departureTime="11:00:00" vehicleRefId="tr_1_2"/>
				<departure id="45" departureTime="11:15:00" vehicleRefId="tr_1_3"/>
				<departure id="46" departureTime="11:30:00" vehicleRefId="tr_1_4"/>
				<departure id="47" departureTime="11:45:00" vehicleRefId="tr_1_5"/>
				<departure id="48" departureTime="12:00:00" vehicleRefId="tr_1_6"/>
				<departure id="49" departureTime="12:15:00" vehicleRefId="tr_1_0"/>
				<departure id="5" departureTime="01:15:00" vehicleRefId="tr_1_5"/>
				<departure id="50" departureTime="12:30:00" vehicleRefId="tr_1_1"/>
				<departure id="51" departureTime="12:45:00" vehicleRefId="tr_1_2"/>
				<departure id="52" departureTime="13:00:00" vehicleRefId="tr_1_3"/>
				<departure id="53" departureTime="13:15:00" vehicleRefId="tr_1_4"/>
				<departure id="54" departureTime="13:30:00" vehicleRefId="tr_1_5"/>
				<departure id="55" departureTime="13:45:00" vehicleRefId="tr_1_6"/>
				<departure id="56" departureTime="14:00:00" vehicleRefId="tr_1_0"/>
				<departure id="57" departureTime="14:15:00" vehicleRefId="tr_1_1"/>
				<departure id="58" departureTime="14:30:00" vehicleRefId="tr_1_2"/>
				<departure id="59" departureTime="14:45:00" vehicleRefId="tr_1_3"/>
				<departure id="6" departureTime="01:30:00" vehicleRefId="tr_1_6"/>
				<departure id="60" departureTime="15:00:00" vehicleRefId="tr_1_4"/>
				<departure id="61" departureTime="15:15:00" vehicleRefId="tr_1_5"/>
				<departure id="62" departureTime="15:30:00" vehicleRefId="tr_1_6"/>
				<departure id="63" departureTime="15:45:00" vehicleRefId="tr_1_0"/>
				<departure id="64" departureTime="16:00:00" vehicleRefId="tr_1_1"/>
				<departure id="65" departureTime="16:15:00" vehicleRefId="tr_1_2"/>
				<departure id="66" departureTime="16:30:00" vehicleRefId="tr_1_3"/>
				<departure id="67" departureTime="16:45:00" vehicleRefId="tr_1_4"/>
				<departure id="68" departureTime="17:00:00" vehicleRefId="tr_1_5"/>
				<departure id="69" departureTime="17:15:00" vehicleRefId="tr_1_6"/>
				<departure id="7" departureTime="01:45:00" vehicleRefId="tr_1_0"/>
				<departure id="70" departureTime="17:30:00" vehicleRefId="tr_1_0"/>
				<departure id="71" departureTime="17:45:00" vehicleRefId="tr_1_1"/>
				<departure id="72" departureTime="18:00:00" vehicleRefId="tr_1_2"/>
				<departure id="73" departureTime="18:15:00" vehicleRefId="tr_1_3"/>
				<departure id="74" departureTime="18:30:00" vehicleRefId="tr_1_4"/>
				<departure id="75" departureTime="18:45:00" vehicleRefId="tr_1_5"/>
				<departure id="76" departureTime="19:00:00" vehicleRefId="tr_1_6"/>
				<departure id="77" departureTime="19:15:00" vehicleRefId="tr_1_0"/>
				<departure id="78" departureTime="19:30:00" vehicleRefId="tr_1_1"/>
				<departure id="79" departureTime="19:45:00" vehicleRefId="tr_1_2"/>
				<departure id="8" departureTime="02:00:00" vehicleRefId="tr_1_1"/>
				<departure id="80" departureTime="20:00:00" vehicleRefId="tr_1_3"/>
				<departure id="81" departureTime="20:15:00" vehicleRefId="tr_1_4"/>
				<departure id="82" departureTime="20:30:00" vehicleRefId="tr_1_5"/>
				<departure id="83" departureTime="20:45:00" vehicleRefId="tr_1_6"/>
				<departure id="84" departureTime="21:00:00" vehicleRefId="tr_1_0"/>
				<departure id="85" departureTime="21:15:00" vehicleRefId="tr_1_1"/>
				<departure id="86" departureTime="21:30:00" vehicleRefId="tr_1_2"/>
				<departure id="87" departureTime="21:45:00" vehicleRefId="tr_1_3"/>
				<departure id="88" departureTime="22:00:00" vehicleRefId="tr_1_4"/>
				<departure id="89" departureTime="22:15:00" vehicleRefId="tr_1_5"/>