<?xml version="1.0" encoding="UTF-8"?>

<vehicleDefinitions xmlns="http://www.matsim.org/files/dtd" xmlns:xsi="http://www.w3.org/2001/XMLSchema-instance" xsi:schemaLocation="http://www.matsim.org/files/dtd http://www.matsim.org/files/dtd/vehicleDefinitions_v2.0.xsd">

	<vehicleType id="1">

		<description>train</description>
		<capacity seats="10" standingRoomInPersons="10">

		</capacity>
		<length meter="50.0"/>
		<width meter="1.0"/>
		<costInformation>

		</costInformation>
		<passengerCarEquivalents pce="1.0"/>
		<networkMode networkMode="train"/>
		<flowEfficiencyFactor factor="1.0"/>
	</vehicleType>

	<vehicle id="tr_0_0" type="1"/>
	<vehicle id="tr_0_1" type="1"/>
	<vehicle id="tr_0_2" type="1"/>
	<vehicle id="tr_0_3" type="1"/>
	<vehicle id="tr_0_4" type="1"/>
	<vehicle id="tr_0_5" type="1"/>
	<vehicle id="tr_0_6" type="1"/>
	<vehicle id="tr_10_0" type="1"/>
	<vehicle id="tr_10_1" type="1"/>
	<vehicle id="tr_10_2" type="1"/>
	<vehicle id="tr_10_3" type="1"/>
	<vehicle id="tr_10_4" type="1"/>
	<vehicle id="tr_10_5" type="1"/>
	<vehicle id="tr_10_6" type="1"/>
	<vehicle id="tr_11_0" type="1"/>
	<vehicle id="tr_11_1" type="1"/>
	<vehicle id="tr_11_2" type="1"/>
	<vehicle id="tr_11_3" type="1"/>
	<vehicle id="tr_11_4" type="1"/>
	<vehicle id="tr_11_5" type="1"/>
	<vehicle id="tr_11_6" type="1"/>
	<vehicle id="tr_12_0" type="1"/>
	<vehicle id="tr_12_1" type="1"/>
	<vehicle id="tr_12_2" type="1"/>
	<vehicle id="tr_12_3" type="1"/>
	<vehicle id="tr_12_4" type="1"/>
	<vehicle id="tr_12_5" type="1"/>
	<vehicle id="tr_12_6" type="1"/>
	<vehicle id="tr_13_0" type="1"/>
	<vehicle id="tr_13_1" type="1"/>
	<vehicle id="tr_13_2" type="1"/>
	<vehicle id="tr_13_3" type="1"/>
	<vehicle id="tr_13_4" type="1"/>
	<vehicle id="tr_13_5" type="1"/>
	<vehicle id="tr_13_6" type="1"/>
	<vehicle id="tr_14_0" type="1"/>
	<vehicle id="tr_14_1" type="1"/>
	<vehicle id="tr_14_2" type="1"/>
	<vehicle id="tr_14_3" type="1"/>
	<vehicle id="tr_14_4" type="1"/>
	<vehicle id="tr_14_5" type="1"/>
	<vehicle id="tr_14_6" type="1"/>
	<vehicle id="tr_15_0" type="1"/>
	<vehicle id="tr_15_1" type="1"/>
	<vehicle id="tr_15_2" type="1"/>
	<vehicle id="tr_15_3" type="1"/>
	<vehicle id="tr_15_4" type="1"/>
	<vehicle id="tr_15_5" type="1"/>
	<vehicle id="tr_15_6" type="1"/>
	<vehicle id="tr_16_0" type="1"/>
	<vehicle id="tr_16_1" type="1"/>
	<vehicle id="tr_16_2" type="1"/>
	<vehicle id="tr_16_3" type="1"/>
	<vehicle id="tr_16_4" type="1"/>
	<vehicle id="tr_16_5" type="1"/>
	<vehicle id="tr_16_6" type="1"/>
	<vehicle id="tr_17_0" type="1"/>
	<vehicle id="tr_17_1" type="1"/>
	<vehicle id="tr_17_2" type="1"/>
	<vehicle id="tr_17_3" type="1"/>
	<vehicle id="tr_17_4" type="1"/>
	<vehicle id="tr_17_5" type="1"/>
	<vehicle id="tr_17_6" type="1"/>
	<vehicle id="tr_18_0" type="1"/>
	<vehicle id="tr_18_1" type="1"/>
	<vehicle id="tr_18_2" type="1"/>
	<vehicle id="tr_18_3" type="1"/>
	<vehicle id="tr_18_4" type="1"/>
	<vehicle id="tr_18_5" type="1"/>
	<vehicle id="tr_18_6" type="1"/>
	<vehicle id="tr_19_0" type="1"/>
	<vehicle id="tr_19_1" type="1"/>
	<vehicle id="tr_19_2" type="1"/>
	<vehicle id="tr_19_3" type="1"/>
	<vehicle id="tr_19_4" type="1"/>
	<vehicle id="tr_19_5" type="1"/>
	<vehicle id="tr_19_6" type="1"/>
	<vehicle id="tr_1_0" type="1"/>
	<vehicle id="tr_1_1" type="1"/>
	<vehicle id="tr_1_2" type="1"/>
	<vehicle id="tr_1_3" type="1"/>
	<vehicle id="tr_1_4" type="1"/>
	<vehicle id="tr_1_5" type="1"/>
	<vehicle id="tr_1_6" type="1"/>
	<vehicle id="tr_2_0" type="1"/>
	<vehicle id="tr_2_1" type="1"/>
	<vehicle id="tr_2_2" type="1"/>
	<vehicle id="tr_2_3" type="1"/>
	<vehicle id="tr_2_4" type="1"/>
	<vehicle id="tr_2_5" type="1"/>
	<vehicle id="tr_2_6" type="1"/>
	<vehicle id="tr_3_0" type="1"/>
	<vehicle id="tr_3_1" type="1"/>
	<vehicle id="tr_3_2" type="1"/>
	<vehicle id="tr_3_3" type="1"/>
	<vehicle id="tr_3_4" type="1"/>
	<vehicle id="tr_3_5" type="1"/>
	<vehicle id="tr_3_6" type="1"/>
	<vehicle id="tr_4_0" type="1"/>
	<vehicle id="tr_4_1" type="1"/>
	<vehicle id="tr_4_2" type="1"/>
	<vehicle id="tr_4_3" type="1"/>
	<vehicle id="tr_4_4" type="1"/>
	<vehicle id="tr_4_5" type="1"/>
	<vehicle id="tr_4_6" type="1"/>
	<vehicle id="tr_5_0" type="1"/>
	<vehicle id="tr_5_1" type="1"/>
	<vehicle id="tr_5_2" type="1"/>
	<vehicle id="tr_5_3" type="1"/>
	<vehicle id="tr_5_4" type="1"/>
	<vehicle id="tr_5_5" type="1"/>
	<vehicle id="tr_5_6" type="1"/>
	<vehicle id="tr_6_0" type="1"/>
	<vehicle id="tr_6_1" type="1"/>
	<vehicle id="tr_6_2" type="1"/>
	<vehicle id="tr_6_3" type="1"/>
	<vehicle id="tr_6_4" type="1"/>
	<vehicle id="tr_6_5" type="1"/>
	<vehicle id="tr_6_6" type="1"/>
	<vehicle id="tr_7_0" type="1"/>
	<vehicle id="tr_7_1" type="1"/>
	<vehicle id="tr_7_2" type="1"/>
	<vehicle id="tr_7_3" type="1"/>
	<vehicle id="tr_7_4" type="1"/>
	<vehicle id="tr_7_5" type="1"/>
	<vehicle id="tr_7_6" type="1"/>
	<vehicle id="tr_8_0" type="1"/>
	<vehicle id="tr_8_1" type="1"/>
	<vehicle id="tr_8_2" type="1"/>
	<vehicle id="tr_8_3" type="1"/>
	<vehicle id="tr_8_4" type="1"/>
	<vehicle id="tr_8_5" type="1"/>
	<vehicle id="tr_8_6" type="1"/>
	<vehicle id="tr_9_0" type="1"/>
	<vehicle id="tr_9_1" type="1"/>
	<vehicle id="tr_9_2" type="1"/>
	<vehicle id="tr_9_3" type="1"/>
	<vehicle id="tr_9_4" type="1"/>
	<vehicle id="tr_9_5" type="1"/>
	<vehicle id="tr_9_6" type="1"/>
		

</vehicleDefinitions>