<?xml version="1.0" encoding="utf-8"?>
<!DOCTYPE population SYSTEM "http://www.matsim.org/files/dtd/population_v6.dtd">

<population>



<!-- ====================================================================== -->

	<person id="pt_101_18_49">
		<attributes>
			<attribute name="hasLicense" class="java.lang.String">false</attribute>
		</attributes>
		<plan selected="yes">
			<activity type="dummy" x="7000.0" y="4000.0" end_time="17:14:10" >
			</activity>
			<leg mode="pt">
			</leg>
			<activity type="dummy" x="10000.0" y="4000.0" end_time="24:00:00" >
			</activity>
		</plan>

	</person>

<!-- ====================================================================== -->

	<person id="pt_101_4_80">
		<attributes>
			<attribute name="hasLicense" class="java.lang.String">false</attribute>
		</attributes>
		<plan selected="yes">
			<activity type="dummy" x="7000.0" y="4000.0" end_time="03:51:43" >
			</activity>
			<leg mode="pt">
			</leg>
			<activity type="dummy" x="9000.0" y="2000.0" end_time="24:00:00" >
			</activity>
		</plan>

	</person>

<!-- ====================================================================== -->

	<person id="pt_102_14_31">
		<attributes>
			<attribute name="hasLicense" class="java.lang.String">false</attribute>
		</attributes>
		<plan selected="yes">
			<activity type="dummy" x="7000.0" y="5000.0" end_time="18:53:31" >
			</activity>
			<leg mode="pt">
			</leg>
			<activity type="dummy" x="10000.0" y="0.0" end_time="24:00:00" >
			</activity>
		</plan>

	</person>

<!-- ====================================================================== -->

	<person id="pt_104_11_57">
		<attributes>
			<attribute name="hasLicense" class="java.lang.String">false</attribute>
		</attributes>
		<plan selected="yes">
			<activity type="dummy" x="7000.0" y="7000.0" end_time="08:38:22" >
			</activity>
			<leg mode="pt">
			</leg>
			<activity type="dummy" x="9000.0" y="9000.0" end_time="24:00:00" >
			</activity>
		</plan>

	</person>

<!-- ====================================================================== -->

	<person id="pt_106_69_13">
		<attributes>
			<attribute name="hasLicense" class="java.lang.String">false</attribute>
		</attributes>
		<plan selected="yes">
			<activity type="dummy" x="7000.0" y="9000.0" end_time="01:46:07" >
			</activity>
			<leg mode="pt">
			</leg>
			<activity type="dummy" x="4000.0" y="8000.0" end_time="24:00:00" >
			</activity>
		</plan>

	</person>

<!-- ====================================================================== -->

	<person id="pt_108_12_2">
		<attributes>
			<attribute name="hasLicense" class="java.lang.String">false</attribute>
		</attributes>
		<plan selected="yes">
			<activity type="dummy" x="8000.0" y="0.0" end_time="04:00:22" >
			</activity>
			<leg mode="pt">
			</leg>
			<activity type="dummy" x="9000.0" y="10000.0" end_time="24:00:00" >
			</activity>
		</plan>

	</person>

<!-- ====================================================================== -->

	<person id="pt_109_101_77">
		<attributes>
			<attribute name="hasLicense" class="java.lang.String">false</attribute>
		</attributes>
		<plan selected="yes">
			<activity type="dummy" x="8000.0" y="1000.0" end_time="10:08:08" >
			</activity>
			<leg mode="pt">
			</leg>
			<activity type="dummy" x="7000.0" y="4000.0" end_time="24:00:00" >
			</activity>
		</plan>

	</person>

<!-- ====================================================================== -->

	<person id="pt_110_28_20">
		<attributes>
			<attribute name="hasLicense" class="java.lang.String">false</attribute>
		</attributes>
		<plan selected="yes">
			<activity type="dummy" x="0.0" y="9000.0" end_time="19:31:26" >
			</activity>
			<leg mode="pt">
			</leg>
			<activity type="dummy" x="1000.0" y="4000.0" end_time="24:00:00" >
			</activity>
		</plan>

	</person>

<!-- ====================================================================== -->

	<person id="pt_110_28_98">
		<attributes>
			<attribute name="hasLicense" class="java.lang.String">false</attribute>
		</attributes>
		<plan selected="yes">
			<activity type="dummy" x="0.0" y="9000.0" end_time="20:50:39" >
			</activity>
			<leg mode="pt">
			</leg>
			<activity type="dummy" x="1000.0" y="4000.0" end_time="24:00:00" >
			</activity>
		</plan>

	</person>

<!-- ====================================================================== -->

	<person id="pt_111_14_85">
		<attributes>
			<attribute name="hasLicense" class="java.lang.String">false</attribute>
		</attributes>
		<plan selected="yes">
			<activity type="dummy" x="8000.0" y="2000.0" end_time="08:33:15" >
			</activity>
			<leg mode="pt">
			</leg>
			<activity type="dummy" x="10000.0" y="0.0" end_time="24:00:00" >
			</activity>
		</plan>

	</person>

<!-- ====================================================================== -->

	<person id="pt_113_44_58">
		<attributes>
			<attribute name="hasLicense" class="java.lang.String">false</attribute>
		</attributes>
		<plan selected="yes">
			<activity type="dummy" x="8000.0" y="4000.0" end_time="03:31:45" >
			</activity>
			<leg mode="pt">
			</leg>
			<activity type="dummy" x="0.0" y="3000.0" end_time="24:00:00" >
			</activity>
		</plan>

	</person>

<!-- ====================================================================== -->

	<person id="pt_115_36_51">
		<attributes>
			<attribute name="hasLicense" class="java.lang.String">false</attribute>
		</attributes>
		<plan selected="yes">
			<activity type="dummy" x="8000.0" y="6000.0" end_time="10:25:37" >
			</activity>
			<leg mode="pt">
			</leg>
			<activity type="dummy" x="2000.0" y="0.0" end_time="24:00:00" >
			</activity>
		</plan>

	</person>

<!-- ====================================================================== -->

	<person id="pt_116_62_56">
		<attributes>
			<attribute name="hasLicense" class="java.lang.String">false</attribute>
		</attributes>
		<plan selected="yes">
			<activity type="dummy" x="8000.0" y="7000.0" end_time="11:24:18" >
			</activity>
			<leg mode="pt">
			</leg>
			<activity type="dummy" x="4000.0" y="2000.0" end_time="24:00:00" >
			</activity>
		</plan>

	</person>

<!-- ====================================================================== -->

	<person id="pt_117_104_5">
		<attributes>
			<attribute name="hasLicense" class="java.lang.String">false</attribute>
		</attributes>
		<plan selected="yes">
			<activity type="dummy" x="8000.0" y="8000.0" end_time="06:30:35" >
			</activity>
			<leg mode="pt">
			</leg>
			<activity type="dummy" x="7000.0" y="7000.0" end_time="24:00:00" >
			</activity>
		</plan>

	</person>

<!-- ====================================================================== -->

	<person id="pt_117_60_52">
		<attributes>
			<attribute name="hasLicense" class="java.lang.String">false</attribute>
		</attributes>
		<plan selected="yes">
			<activity type="dummy" x="8000.0" y="8000.0" end_time="12:22:50" >
			</activity>
			<leg mode="pt">
			</leg>
			<activity type="dummy" x="4000.0" y="0.0" end_time="24:00:00" >
			</activity>
		</plan>

	</person>

<!-- ====================================================================== -->

	<person id="pt_119_114_54">
		<attributes>
			<attribute name="hasLicense" class="java.lang.String">false</attribute>
		</attributes>
		<plan selected="yes">
			<activity type="dummy" x="8000.0" y="10000.0" end_time="06:28:32" >
			</activity>
			<leg mode="pt">
			</leg>
			<activity type="dummy" x="8000.0" y="5000.0" end_time="24:00:00" >
			</activity>
		</plan>

	</person>

<!-- ====================================================================== -->

	<person id="pt_11_115_15">
		<attributes>
			<attribute name="hasLicense" class="java.lang.String">false</attribute>
		</attributes>
		<plan selected="yes">
			<activity type="dummy" x="9000.0" y="9000.0" end_time="20:28:38" >
			</activity>
			<leg mode="pt">
			</leg>
			<activity type="dummy" x="8000.0" y="6000.0" end_time="24:00:00" >
			</activity>
		</plan>

	</person>

<!-- ====================================================================== -->

	<person id="pt_11_44_73">
		<attributes>
			<attribute name="hasLicense" class="java.lang.String">false</attribute>
		</attributes>
		<plan selected="yes">
			<activity type="dummy" x="9000.0" y="9000.0" end_time="02:21:16" >
			</activity>
			<leg mode="pt">
			</leg>
			<activity type="dummy" x="0.0" y="3000.0" end_time="24:00:00" >
			</activity>
		</plan>

	</person>

<!-- ====================================================================== -->

	<person id="pt_11_54_27">
		<attributes>
			<attribute name="hasLicense" class="java.lang.String">false</attribute>
		</attributes>
		<plan selected="yes">
			<activity type="dummy" x="9000.0" y="9000.0" end_time="13:22:57" >
			</activity>
			<leg mode="pt">
			</leg>
			<activity type="dummy" x="3000.0" y="6000.0" end_time="24:00:00" >
			</activity>
		</plan>

	</person>

<!-- ====================================================================== -->

	<person id="pt_12_88_83">
		<attributes>
			<attribute name="hasLicense" class="java.lang.String">false</attribute>
		</attributes>
		<plan selected="yes">
			<activity type="dummy" x="9000.0" y="10000.0" end_time="18:26:05" >
			</activity>
			<leg mode="pt">
			</leg>
			<activity type="dummy" x="0.0" y="7000.0" end_time="24:00:00" >
			</activity>
		</plan>

	</person>

<!-- ====================================================================== -->

	<person id="pt_12_90_43">
		<attributes>
			<attribute name="hasLicense" class="java.lang.String">false</attribute>
		</attributes>
		<plan selected="yes">
			<activity type="dummy" x="9000.0" y="10000.0" end_time="07:25:30" >
			</activity>
			<leg mode="pt">
			</leg>
			<activity type="dummy" x="6000.0" y="5000.0" end_time="24:00:00" >
			</activity>
		</plan>

	</person>

<!-- ====================================================================== -->

	<person id="pt_13_64_95">
		<attributes>
			<attribute name="hasLicense" class="java.lang.String">false</attribute>
		</attributes>
		<plan selected="yes">
			<activity type="dummy" x="1000.0" y="0.0" end_time="15:44:22" >
			</activity>
			<leg mode="pt">
			</leg>
			<activity type="dummy" x="4000.0" y="4000.0" end_time="24:00:00" >
			</activity>
		</plan>

	</person>

<!-- ====================================================================== -->

	<person id="pt_14_31_50">
		<attributes>
			<attribute name="hasLicense" class="java.lang.String">false</attribute>
		</attributes>
		<plan selected="yes">
			<activity type="dummy" x="10000.0" y="0.0" end_time="13:06:53" >
			</activity>
			<leg mode="pt">
			</leg>
			<activity type="dummy" x="1000.0" y="7000.0" end_time="24:00:00" >
			</activity>
		</plan>

	</person>

<!-- ====================================================================== -->

	<person id="pt_16_56_38">
		<attributes>
			<attribute name="hasLicense" class="java.lang.String">false</attribute>
		</attributes>
		<plan selected="yes">
			<activity type="dummy" x="10000.0" y="2000.0" end_time="05:51:42" >
			</activity>
			<leg mode="pt">
			</leg>
			<activity type="dummy" x="3000.0" y="7000.0" end_time="24:00:00" >
			</activity>
		</plan>

	</person>

<!-- ====================================================================== -->

	<person id="pt_16_75_18">
		<attributes>
			<attribute name="hasLicense" class="java.lang.String">false</attribute>
		</attributes>
		<plan selected="yes">
			<activity type="dummy" x="10000.0" y="2000.0" end_time="18:29:41" >
			</activity>
			<leg mode="pt">
			</leg>
			<activity type="dummy" x="5000.0" y="3000.0" end_time="24:00:00" >
			</activity>
		</plan>

	</person>

<!-- ====================================================================== -->

	<person id="pt_18_32_55">
		<attributes>
			<attribute name="hasLicense" class="java.lang.String">false</attribute>
		</attributes>
		<plan selected="yes">
			<activity type="dummy" x="10000.0" y="4000.0" end_time="03:19:00" >
			</activity>
			<leg mode="pt">
			</leg>
			<activity type="dummy" x="1000.0" y="8000.0" end_time="24:00:00" >
			</activity>
		</plan>

	</person>

<!-- ====================================================================== -->

	<person id="pt_18_6_69">
		<attributes>
			<attribute name="hasLicense" class="java.lang.String">false</attribute>
		</attributes>
		<plan selected="yes">
			<activity type="dummy" x="10000.0" y="4000.0" end_time="22:54:02" >
			</activity>
			<leg mode="pt">
			</leg>
			<activity type="dummy" x="9000.0" y="4000.0" end_time="24:00:00" >
			</activity>
		</plan>

	</person>

<!-- ====================================================================== -->

	<person id="pt_20_16_91">
		<attributes>
			<attribute name="hasLicense" class="java.lang.String">false</attribute>
		</attributes>
		<plan selected="yes">
			<activity type="dummy" x="10000.0" y="6000.0" end_time="01:13:29" >
			</activity>
			<leg mode="pt">
			</leg>
			<activity type="dummy" x="10000.0" y="2000.0" end_time="24:00:00" >
			</activity>
		</plan>

	</person>

<!-- ====================================================================== -->

	<person id="pt_21_47_78">
		<attributes>
			<attribute name="hasLicense" class="java.lang.String">false</attribute>
		</attributes>
		<plan selected="yes">
			<activity type="dummy" x="10000.0" y="7000.0" end_time="17:37:12" >
			</activity>
			<leg mode="pt">
			</leg>
			<activity type="dummy" x="2000.0" y="10000.0" end_time="24:00:00" >
			</activity>
		</plan>

	</person>

<!-- ====================================================================== -->

	<person id="pt_21_70_10">
		<attributes>
			<attribute name="hasLicense" class="java.lang.String">false</attribute>
		</attributes>
		<plan selected="yes">
			<activity type="dummy" x="10000.0" y="7000.0" end_time="00:45:45" >
			</activity>
			<leg mode="pt">
			</leg>
			<activity type="dummy" x="4000.0" y="9000.0" end_time="24:00:00" >
			</activity>
		</plan>

	</person>

<!-- ====================================================================== -->

	<person id="pt_24_101_8">
		<attributes>
			<attribute name="hasLicense" class="java.lang.String">false</attribute>
		</attributes>
		<plan selected="yes">
			<activity type="dummy" x="1000.0" y="1000.0" end_time="15:42:19" >
			</activity>
			<leg mode="pt">
			</leg>
			<activity type="dummy" x="7000.0" y="4000.0" end_time="24:00:00" >
			</activity>
		</plan>

	</person>

<!-- ====================================================================== -->

	<person id="pt_24_107_36">
		<attributes>
			<attribute name="hasLicense" class="java.lang.String">false</attribute>
		</attributes>
		<plan selected="yes">
			<activity type="dummy" x="1000.0" y="1000.0" end_time="21:19:15" >
			</activity>
			<leg mode="pt">
			</leg>
			<activity type="dummy" x="7000.0" y="10000.0" end_time="24:00:00" >
			</activity>
		</plan>

	</person>

<!-- ====================================================================== -->

	<person id="pt_24_86_33">
		<attributes>
			<attribute name="hasLicense" class="java.lang.String">false</attribute>
		</attributes>
		<plan selected="yes">
			<activity type="dummy" x="1000.0" y="1000.0" end_time="13:43:40" >
			</activity>
			<leg mode="pt">
			</leg>
			<activity type="dummy" x="6000.0" y="2000.0" end_time="24:00:00" >
			</activity>
		</plan>

	</person>

<!-- ====================================================================== -->

	<person id="pt_25_43_40">
		<attributes>
			<attribute name="hasLicense" class="java.lang.String">false</attribute>
		</attributes>
		<plan selected="yes">
			<activity type="dummy" x="10000.0" y="10000.0" end_time="03:16:52" >
			</activity>
			<leg mode="pt">
			</leg>
			<activity type="dummy" x="2000.0" y="7000.0" end_time="24:00:00" >
			</activity>
		</plan>

	</person>

<!-- ====================================================================== -->

	<person id="pt_29_89_87">
		<attributes>
			<attribute name="hasLicense" class="java.lang.String">false</attribute>
		</attributes>
		<plan selected="yes">
			<activity type="dummy" x="1000.0" y="5000.0" end_time="08:07:11" >
			</activity>
			<leg mode="pt">
			</leg>
			<activity type="dummy" x="6000.0" y="4000.0" end_time="24:00:00" >
			</activity>
		</plan>

	</person>

<!-- ====================================================================== -->

	<person id="pt_2_9_97">
		<attributes>
			<attribute name="hasLicense" class="java.lang.String">false</attribute>
		</attributes>
		<plan selected="yes">
			<activity type="dummy" x="0.0" y="10000.0" end_time="06:10:52" >
			</activity>
			<leg mode="pt">
			</leg>
			<activity type="dummy" x="9000.0" y="7000.0" end_time="24:00:00" >
			</activity>
		</plan>

	</person>

<!-- ====================================================================== -->

	<person id="pt_33_106_23">
		<attributes>
			<attribute name="hasLicense" class="java.lang.String">false</attribute>
		</attributes>
		<plan selected="yes">
			<activity type="dummy" x="0.0" y="2000.0" end_time="21:57:19" >
			</activity>
			<leg mode="pt">
			</leg>
			<activity type="dummy" x="7000.0" y="9000.0" end_time="24:00:00" >
			</activity>
		</plan>

	</person>

<!-- ====================================================================== -->

	<person id="pt_33_58_84">
		<attributes>
			<attribute name="hasLicense" class="java.lang.String">false</attribute>
		</attributes>
		<plan selected="yes">
			<activity type="dummy" x="0.0" y="2000.0" end_time="22:21:41" >
			</activity>
			<leg mode="pt">
			</leg>
			<activity type="dummy" x="3000.0" y="9000.0" end_time="24:00:00" >
			</activity>
		</plan>

	</person>

<!-- ====================================================================== -->

	<person id="pt_34_44_46">
		<attributes>
			<attribute name="hasLicense" class="java.lang.String">false</attribute>
		</attributes>
		<plan selected="yes">
			<activity type="dummy" x="1000.0" y="9000.0" end_time="21:23:28" >
			</activity>
			<leg mode="pt">
			</leg>
			<activity type="dummy" x="0.0" y="3000.0" end_time="24:00:00" >
			</activity>
		</plan>

	</person>

<!-- ====================================================================== -->

	<person id="pt_34_76_48">
		<attributes>
			<attribute name="hasLicense" class="java.lang.String">false</attribute>
		</attributes>
		<plan selected="yes">
			<activity type="dummy" x="1000.0" y="9000.0" end_time="16:16:56" >
			</activity>
			<leg mode="pt">
			</leg>
			<activity type="dummy" x="5000.0" y="4000.0" end_time="24:00:00" >
			</activity>
		</plan>

	</person>

<!-- ====================================================================== -->

	<person id="pt_37_103_53">
		<attributes>
			<attribute name="hasLicense" class="java.lang.String">false</attribute>
		</attributes>
		<plan selected="yes">
			<activity type="dummy" x="2000.0" y="1000.0" end_time="04:19:37" >
			</activity>
			<leg mode="pt">
			</leg>
			<activity type="dummy" x="7000.0" y="6000.0" end_time="24:00:00" >
			</activity>
		</plan>

	</person>

<!-- ====================================================================== -->

	<person id="pt_37_97_79">
		<attributes>
			<attribute name="hasLicense" class="java.lang.String">false</attribute>
		</attributes>
		<plan selected="yes">
			<activity type="dummy" x="2000.0" y="1000.0" end_time="15:09:56" >
			</activity>
			<leg mode="pt">
			</leg>
			<activity type="dummy" x="7000.0" y="1000.0" end_time="24:00:00" >
			</activity>
		</plan>

	</person>

<!-- ====================================================================== -->

	<person id="pt_3_15_65">
		<attributes>
			<attribute name="hasLicense" class="java.lang.String">false</attribute>
		</attributes>
		<plan selected="yes">
			<activity type="dummy" x="9000.0" y="1000.0" end_time="03:46:59" >
			</activity>
			<leg mode="pt">
			</leg>
			<activity type="dummy" x="10000.0" y="1000.0" end_time="24:00:00" >
			</activity>
		</plan>

	</person>

<!-- ====================================================================== -->

	<person id="pt_40_12_16">
		<attributes>
			<attribute name="hasLicense" class="java.lang.String">false</attribute>
		</attributes>
		<plan selected="yes">
			<activity type="dummy" x="2000.0" y="4000.0" end_time="09:56:52" >
			</activity>
			<leg mode="pt">
			</leg>
			<activity type="dummy" x="9000.0" y="10000.0" end_time="24:00:00" >
			</activity>
		</plan>

	</person>

<!-- ====================================================================== -->

	<person id="pt_40_28_44">
		<attributes>
			<attribute name="hasLicense" class="java.lang.String">false</attribute>
		</attributes>
		<plan selected="yes">
			<activity type="dummy" x="2000.0" y="4000.0" end_time="15:59:50" >
			</activity>
			<leg mode="pt">
			</leg>
			<activity type="dummy" x="1000.0" y="4000.0" end_time="24:00:00" >
			</activity>
		</plan>

	</person>

<!-- ====================================================================== -->

	<person id="pt_43_91_37">
		<attributes>
			<attribute name="hasLicense" class="java.lang.String">false</attribute>
		</attributes>
		<plan selected="yes">
			<activity type="dummy" x="2000.0" y="7000.0" end_time="17:40:54" >
			</activity>
			<leg mode="pt">
			</leg>
			<activity type="dummy" x="6000.0" y="6000.0" end_time="24:00:00" >
			</activity>
		</plan>

	</person>

<!-- ====================================================================== -->

	<person id="pt_44_113_6">
		<attributes>
			<attribute name="hasLicense" class="java.lang.String">false</attribute>
		</attributes>
		<plan selected="yes">
			<activity type="dummy" x="0.0" y="3000.0" end_time="20:05:03" >
			</activity>
			<leg mode="pt">
			</leg>
			<activity type="dummy" x="8000.0" y="4000.0" end_time="24:00:00" >
			</activity>
		</plan>

	</person>

<!-- ====================================================================== -->

	<person id="pt_44_98_11">
		<attributes>
			<attribute name="hasLicense" class="java.lang.String">false</attribute>
		</attributes>
		<plan selected="yes">
			<activity type="dummy" x="0.0" y="3000.0" end_time="09:12:13" >
			</activity>
			<leg mode="pt">
			</leg>
			<activity type="dummy" x="7000.0" y="2000.0" end_time="24:00:00" >
			</activity>
		</plan>

	</person>

<!-- ====================================================================== -->

	<person id="pt_45_64_24">
		<attributes>
			<attribute name="hasLicense" class="java.lang.String">false</attribute>
		</attributes>
		<plan selected="yes">
			<activity type="dummy" x="2000.0" y="8000.0" end_time="08:21:14" >
			</activity>
			<leg mode="pt">
			</leg>
			<activity type="dummy" x="4000.0" y="4000.0" end_time="24:00:00" >
			</activity>
		</plan>

	</person>

<!-- ====================================================================== -->

	<person id="pt_46_23_99">
		<attributes>
			<attribute name="hasLicense" class="java.lang.String">false</attribute>
		</attributes>
		<plan selected="yes">
			<activity type="dummy" x="2000.0" y="9000.0" end_time="23:33:05" >
			</activity>
			<leg mode="pt">
			</leg>
			<activity type="dummy" x="10000.0" y="9000.0" end_time="24:00:00" >
			</activity>
		</plan>

	</person>

<!-- ====================================================================== -->

	<person id="pt_47_4_42">
		<attributes>
			<attribute name="hasLicense" class="java.lang.String">false</attribute>
		</attributes>
		<plan selected="yes">
			<activity type="dummy" x="2000.0" y="10000.0" end_time="17:31:50" >
			</activity>
			<leg mode="pt">
			</leg>
			<activity type="dummy" x="9000.0" y="2000.0" end_time="24:00:00" >
			</activity>
		</plan>

	</person>

<!-- ====================================================================== -->

	<person id="pt_4_1_71">
		<attributes>
			<attribute name="hasLicense" class="java.lang.String">false</attribute>
		</attributes>
		<plan selected="yes">
			<activity type="dummy" x="9000.0" y="2000.0" end_time="18:02:07" >
			</activity>
			<leg mode="pt">
			</leg>
			<activity type="dummy" x="0.0" y="1000.0" end_time="24:00:00" >
			</activity>
		</plan>

	</person>

<!-- ====================================================================== -->

	<person id="pt_50_91_89">
		<attributes>
			<attribute name="hasLicense" class="java.lang.String">false</attribute>
		</attributes>
		<plan selected="yes">
			<activity type="dummy" x="3000.0" y="2000.0" end_time="04:21:12" >
			</activity>
			<leg mode="pt">
			</leg>
			<activity type="dummy" x="6000.0" y="6000.0" end_time="24:00:00" >
			</activity>
		</plan>

	</person>

<!-- ====================================================================== -->

	<person id="pt_51_23_76">
		<attributes>
			<attribute name="hasLicense" class="java.lang.String">false</attribute>
		</attributes>
		<plan selected="yes">
			<activity type="dummy" x="3000.0" y="3000.0" end_time="18:05:26" >
			</activity>
			<leg mode="pt">
			</leg>
			<activity type="dummy" x="10000.0" y="9000.0" end_time="24:00:00" >
			</activity>
		</plan>

	</person>

<!-- ====================================================================== -->

	<person id="pt_52_22_21">
		<attributes>
			<attribute name="hasLicense" class="java.lang.String">false</attribute>
		</attributes>
		<plan selected="yes">
			<activity type="dummy" x="3000.0" y="4000.0" end_time="22:58:06" >
			</activity>
			<leg mode="pt">
			</leg>
			<activity type="dummy" x="10000.0" y="8000.0" end_time="24:00:00" >
			</activity>
		</plan>

	</person>

<!-- ====================================================================== -->

	<person id="pt_52_6_86">
		<attributes>
			<attribute name="hasLicense" class="java.lang.String">false</attribute>
		</attributes>
		<plan selected="yes">
			<activity type="dummy" x="3000.0" y="4000.0" end_time="05:24:10" >
			</activity>
			<leg mode="pt">
			</leg>
			<activity type="dummy" x="9000.0" y="4000.0" end_time="24:00:00" >
			</activity>
		</plan>

	</person>

<!-- ====================================================================== -->

	<person id="pt_53_115_30">
		<attributes>
			<attribute name="hasLicense" class="java.lang.String">false</attribute>
		</attributes>
		<plan selected="yes">
			<activity type="dummy" x="3000.0" y="5000.0" end_time="13:27:03" >
			</activity>
			<leg mode="pt">
			</leg>
			<activity type="dummy" x="8000.0" y="6000.0" end_time="24:00:00" >
			</activity>
		</plan>

	</person>

<!-- ====================================================================== -->

	<person id="pt_57_15_7">
		<attributes>
			<attribute name="hasLicense" class="java.lang.String">false</attribute>
		</attributes>
		<plan selected="yes">
			<activity type="dummy" x="3000.0" y="8000.0" end_time="04:01:07" >
			</activity>
			<leg mode="pt">
			</leg>
			<activity type="dummy" x="10000.0" y="1000.0" end_time="24:00:00" >
			</activity>
		</plan>

	</person>

<!-- ====================================================================== -->

	<person id="pt_58_64_3">
		<attributes>
			<attribute name="hasLicense" class="java.lang.String">false</attribute>
		</attributes>
		<plan selected="yes">
			<activity type="dummy" x="3000.0" y="9000.0" end_time="17:54:13" >
			</activity>
			<leg mode="pt">
			</leg>
			<activity type="dummy" x="4000.0" y="4000.0" end_time="24:00:00" >
			</activity>
		</plan>

	</person>

<!-- ====================================================================== -->

	<person id="pt_61_114_59">
		<attributes>
			<attribute name="hasLicense" class="java.lang.String">false</attribute>
		</attributes>
		<plan selected="yes">
			<activity type="dummy" x="4000.0" y="1000.0" end_time="21:10:04" >
			</activity>
			<leg mode="pt">
			</leg>
			<activity type="dummy" x="8000.0" y="5000.0" end_time="24:00:00" >
			</activity>
		</plan>

	</person>

<!-- ====================================================================== -->

	<person id="pt_61_82_39">
		<attributes>
			<attribute name="hasLicense" class="java.lang.String">false</attribute>
		</attributes>
		<plan selected="yes">
			<activity type="dummy" x="4000.0" y="1000.0" end_time="11:14:43" >
			</activity>
			<leg mode="pt">
			</leg>
			<activity type="dummy" x="5000.0" y="9000.0" end_time="24:00:00" >
			</activity>
		</plan>

	</person>

<!-- ====================================================================== -->

	<person id="pt_62_98_35">
		<attributes>
			<attribute name="hasLicense" class="java.lang.String">false</attribute>
		</attributes>
		<plan selected="yes">
			<activity type="dummy" x="4000.0" y="2000.0" end_time="04:55:32" >
			</activity>
			<leg mode="pt">
			</leg>
			<activity type="dummy" x="7000.0" y="2000.0" end_time="24:00:00" >
			</activity>
		</plan>

	</person>

<!-- ====================================================================== -->

	<person id="pt_63_32_12">
		<attributes>
			<attribute name="hasLicense" class="java.lang.String">false</attribute>
		</attributes>
		<plan selected="yes">
			<activity type="dummy" x="4000.0" y="3000.0" end_time="10:18:06" >
			</activity>
			<leg mode="pt">
			</leg>
			<activity type="dummy" x="1000.0" y="8000.0" end_time="24:00:00" >
			</activity>
		</plan>

	</person>

<!-- ====================================================================== -->

	<person id="pt_63_76_26">
		<attributes>
			<attribute name="hasLicense" class="java.lang.String">false</attribute>
		</attributes>
		<plan selected="yes">
			<activity type="dummy" x="4000.0" y="3000.0" end_time="06:03:48" >
			</activity>
			<leg mode="pt">
			</leg>
			<activity type="dummy" x="5000.0" y="4000.0" end_time="24:00:00" >
			</activity>
		</plan>

	</person>

<!-- ====================================================================== -->

	<person id="pt_64_95_1">
		<attributes>
			<attribute name="hasLicense" class="java.lang.String">false</attribute>
		</attributes>
		<plan selected="yes">
			<activity type="dummy" x="4000.0" y="4000.0" end_time="23:01:56" >
			</activity>
			<leg mode="pt">
			</leg>
			<activity type="dummy" x="6000.0" y="10000.0" end_time="24:00:00" >
			</activity>