<?xml version="1.0" encoding="UTF-8"?>

<vehicleDefinitions xmlns="http://www.matsim.org/files/dtd"
                    xmlns:xsi="http://www.w3.org/2001/XMLSchema-instance"
                    xsi:schemaLocation="http://www.matsim.org/files/dtd
					http://www.matsim.org/files/dtd/vehicleDefinitions_v1.0.xsd">
    <vehicleType id="1">
        <description>
            Small Train
        </description>
        <capacity>
            <seats persons="50"/>
            <standingRoom persons="30"/>
        </capacity>
        <length meter="50.0"/>
        <width meter="1.0"/>
<!--        <accessTime secondsPerPerson="1.0"/>-->
<!--        <egressTime secondsPerPerson="1.0"/>-->
<!--        <doorOperation mode="serial"/>-->
<!--        <passengerCarEquivalents pce="1.0"/>-->
    </vehicleType>
    <vehicle id="tr_0" type="1"/>
    <vehicle id="tr_1" type="1"/>
    <vehicle id="tr_2" type="1"/>
    <vehicle id="tr_3" type="1"/>
    <vehicle id="tr_4" type="1"/>
    <vehicle id="tr_5" type="1"/>
    <vehicle id="tr_6" type="1"/>
    <vehicle id="tr_7" type="1"/>
    <vehicle id="tr_8" type="1"/>
    <vehicle id="tr_9" type="1"/>
    <vehicle id="tr_10" type="1"/>
    <vehicle id="tr_11" type="1"/>
    <vehicle id="tr_12" type="1"/>
    <vehicle id="tr_13" type="1"/>
    <vehicle id="tr_14" type="1"/>
    <vehicle id="tr_15" type="1"/>
    <vehicle id="tr_16" type="1"/>
    <vehicle id="tr_17" type="1"/>
    <vehicle id="tr_18" type="1"/>
    <vehicle id="tr_19" type="1"/>
    <vehicle id="tr_20" type="1"/>
    <vehicle id="tr_21" type="1"/>
    <vehicle id="tr_22" type="1"/>
    <vehicle id="tr_23" type="1"/>
    <vehicle id="tr_24" type="1"/>
    <vehicle id="tr_25" type="1"/>
    <vehicle id="tr_26" type="1"/>
    <vehicle id="tr_27" type="1"/>
    <vehicle id="tr_28" type="1"/>
    <vehicle id="tr_29" type="1"/>
    <vehicle id="tr_30" type="1"/>
    <vehicle id="tr_31" type="1"/>
    <vehicle id="tr_32" type="1"/>
    <vehicle id="tr_33" type="1"/>
    <vehicle id="tr_34" type="1"/>
    <vehicle id="tr_35" type="1"/>
    <vehicle id="tr_36" type="1"/>
    <vehicle id="tr_37" type="1"/>
    <vehicle id="tr_38" type="1"/>
    <vehicle id="tr_39" type="1"/>
</vehicleDefinitions>