<?xml version="1.0" encoding="utf-8"?>
<!DOCTYPE population SYSTEM "http://www.matsim.org/files/dtd/population_v6.dtd">

<population>



<!-- ====================================================================== -->

	<person id="0">
		<attributes>
			<attribute name="hasLicense" class="java.lang.String">false</attribute>
		</attributes>
		<plan selected="yes">
			<activity type="dummy" x="900.0" y="7200.0" end_time="03:17:07" >
			</activity>
			<leg mode="pt">
			</leg>
			<activity type="dummy" x="8600.0" y="9600.0" >
			</activity>
		</plan>

	</person>

<!-- ====================================================================== -->

	<person id="1">
		<attributes>
			<attribute name="hasLicense" class="java.lang.String">false</attribute>
		</attributes>
		<plan selected="yes">
			<activity type="dummy" x="2700.0" y="2400.0" end_time="02:28:24" >
			</activity>
			<leg mode="pt">
			</leg>
			<activity type="dummy" x="6800.0" y="0.0" >
			</activity>
		</plan>

	</person>

<!-- ====================================================================== -->

	<person id="10">
		<attributes>
			<attribute name="hasLicense" class="java.lang.String">false</attribute>
		</attributes>
		<plan selected="yes">
			<activity type="dummy" x="6700.0" y="8400.0" end_time="20:16:08" >
			</activity>
			<leg mode="pt">
			</leg>
			<activity type="dummy" x="700.0" y="5000.0" >
			</activity>
		</plan>

	</person>

<!-- ====================================================================== -->

	<person id="11">
		<attributes>
			<attribute name="hasLicense" class="java.lang.String">false</attribute>
		</attributes>
		<plan selected="yes">
			<activity type="dummy" x="1300.0" y="8100.0" end_time="07:51:44" >
			</activity>
			<leg mode="pt">
			</leg>
			<activity type="dummy" x="6400.0" y="1500.0" >
			</activity>
		</plan>

	</person>

<!-- ====================================================================== -->

	<person id="12">
		<attributes>
			<attribute name="hasLicense" class="java.lang.String">false</attribute>
		</attributes>
		<plan selected="yes">
			<activity type="dummy" x="5500.0" y="2500.0" end_time="07:45:50" >
			</activity>
			<leg mode="pt">
			</leg>
			<activity type="dummy" x="200.0" y="1000.0" >
			</activity>
		</plan>

	</person>

<!-- ====================================================================== -->

	<person id="13">
		<attributes>
			<attribute name="hasLicense" class="java.lang.String">false</attribute>
		</attributes>
		<plan selected="yes">
			<activity type="dummy" x="8300.0" y="2800.0" end_time="00:29:22" >
			</activity>
			<leg mode="pt">
			</leg>
			<activity type="dummy" x="3100.0" y="100.0" >
			</activity>
		</plan>

	</person>

<!-- ====================================================================== -->

	<person id="14">
		<attributes>
			<attribute name="hasLicense" class="java.lang.String">false</attribute>
		</attributes>
		<plan selected="yes">
			<activity type="dummy" x="1300.0" y="10000.0" end_time="12:33:09" >
			</activity>
			<leg mode="pt">
			</leg>
			<activity type="dummy" x="1300.0" y="2900.0" >
			</activity>
		</plan>

	</person>

<!-- ====================================================================== -->

	<person id="15">
		<attributes>
			<attribute name="hasLicense" class="java.lang.String">false</attribute>
		</attributes>
		<plan selected="yes">
			<activity type="dummy" x="2400.0" y="7500.0" end_time="18:59:26" >
			</activity>
			<leg mode="pt">
			</leg>
			<activity type="dummy" x="6100.0" y="6500.0" >
			</activity>
		</plan>

	</person>

<!-- ====================================================================== -->

	<person id="16">
		<attributes>
			<attribute name="hasLicense" class="java.lang.String">false</attribute>
		</attributes>
		<plan selected="yes">
			<activity type="dummy" x="5400.0" y="5400.0" end_time="10:41:35" >
			</activity>
			<leg mode="pt">
			</leg>
			<activity type="dummy" x="9500.0" y="2200.0" >
			</activity>
		</plan>

	</person>

<!-- ====================================================================== -->

	<person id="17">
		<attributes>
			<attribute name="hasLicense" class="java.lang.String">false</attribute>
		</attributes>
		<plan selected="yes">
			<activity type="dummy" x="7300.0" y="3800.0" end_time="20:15:44" >
			</activity>
			<leg mode="pt">
			</leg>
			<activity type="dummy" x="6800.0" y="600.0" >
			</activity>
		</plan>

	</person>

<!-- ====================================================================== -->

	<person id="18">
		<attributes>
			<attribute name="hasLicense" class="java.lang.String">false</attribute>
		</attributes>
		<plan selected="yes">
			<activity type="dummy" x="800.0" y="5900.0" end_time="18:14:57" >
			</activity>
			<leg mode="pt">
			</leg>
			<activity type="dummy" x="8200.0" y="5800.0" >
			</activity>
		</plan>

	</person>

<!-- ====================================================================== -->

	<person id="19">
		<attributes>
			<attribute name="hasLicense" class="java.lang.String">false</attribute>
		</attributes>
		<plan selected="yes">
			<activity type="dummy" x="800.0" y="2500.0" end_time="04:00:50" >
			</activity>
			<leg mode="pt">
			</leg>
			<activity type="dummy" x="700.0" y="4100.0" >
			</activity>
		</plan>

	</person>

<!-- ====================================================================== -->

	<person id="2">
		<attributes>
			<attribute name="hasLicense" class="java.lang.String">false</attribute>
		</attributes>
		<plan selected="yes">
			<activity type="dummy" x="8400.0" y="9300.0" end_time="06:54:41" >
			</activity>
			<leg mode="pt">
			</leg>
			<activity type="dummy" x="5200.0" y="900.0" >
			</activity>
		</plan>

	</person>

<!-- ====================================================================== -->

	<person id="20">
		<attributes>
			<attribute name="hasLicense" class="java.lang.String">false</attribute>
		</attributes>
		<plan selected="yes">
			<activity type="dummy" x="6300.0" y="3600.0" end_time="16:47:09" >
			</activity>
			<leg mode="pt">
			</leg>
			<activity type="dummy" x="600.0" y="7500.0" >
			</activity>
		</plan>

	</person>

<!-- ====================================================================== -->

	<person id="21">
		<attributes>
			<attribute name="hasLicense" class="java.lang.String">false</attribute>
		</attributes>
		<plan selected="yes">
			<activity type="dummy" x="3000.0" y="3200.0" end_time="15:00:12" >
			</activity>
			<leg mode="pt">
			</leg>
			<activity type="dummy" x="1900.0" y="4000.0" >
			</activity>
		</plan>

	</person>

<!-- ====================================================================== -->

	<person id="22">
		<attributes>
			<attribute name="hasLicense" class="java.lang.String">false</attribute>
		</attributes>
		<plan selected="yes">
			<activity type="dummy" x="2300.0" y="800.0" end_time="09:54:55" >
			</activity>
			<leg mode="pt">
			</leg>
			<activity type="dummy" x="5600.0" y="900.0" >
			</activity>
		</plan>

	</person>

<!-- ====================================================================== -->

	<person id="23">
		<attributes>
			<attribute name="hasLicense" class="java.lang.String">false</attribute>
		</attributes>
		<plan selected="yes">
			<activity type="dummy" x="6200.0" y="3800.0" end_time="20:35:12" >
			</activity>
			<leg mode="pt">
			</leg>
			<activity type="dummy" x="4500.0" y="4400.0" >
			</activity>
		</plan>

	</person>

<!-- ====================================================================== -->

	<person id="24">
		<attributes>
			<attribute name="hasLicense" class="java.lang.String">false</attribute>
		</attributes>
		<plan selected="yes">
			<activity type="dummy" x="1600.0" y="6300.0" end_time="02:13:25" >
			</activity>
			<leg mode="pt">
			</leg>
			<activity type="dummy" x="200.0" y="2800.0" >
			</activity>
		</plan>

	</person>

<!-- ====================================================================== -->

	<person id="25">
		<attributes>
			<attribute name="hasLicense" class="java.lang.String">false</attribute>
		</attributes>
		<plan selected="yes">
			<activity type="dummy" x="3000.0" y="3200.0" end_time="18:52:12" >
			</activity>
			<leg mode="pt">
			</leg>
			<activity type="dummy" x="800.0" y="8700.0" >
			</activity>
		</plan>

	</person>

<!-- ====================================================================== -->

	<person id="26">
		<attributes>
			<attribute name="hasLicense" class="java.lang.String">false</attribute>
		</attributes>
		<plan selected="yes">
			<activity type="dummy" x="600.0" y="7500.0" end_time="12:47:21" >
			</activity>
			<leg mode="pt">
			</leg>
			<activity type="dummy" x="300.0" y="4000.0" >
			</activity>
		</plan>

	</person>

<!-- ====================================================================== -->

	<person id="27">
		<attributes>
			<attribute name="hasLicense" class="java.lang.String">false</attribute>
		</attributes>
		<plan selected="yes">
			<activity type="dummy" x="7200.0" y="6700.0" end_time="21:49:58" >
			</activity>
			<leg mode="pt">
			</leg>
			<activity type="dummy" x="5600.0" y="4900.0" >
			</activity>
		</plan>

	</person>

<!-- ====================================================================== -->

	<person id="28">
		<attributes>
			<attribute name="hasLicense" class="java.lang.String">false</attribute>
		</attributes>
		<plan selected="yes">
			<activity type="dummy" x="600.0" y="5000.0" end_time="11:41:33" >
			</activity>
			<leg mode="pt">
			</leg>
			<activity type="dummy" x="6000.0" y="300.0" >
			</activity>
		</plan>

	</person>

<!-- ====================================================================== -->

	<person id="29">
		<attributes>
			<attribute name="hasLicense" class="java.lang.String">false</attribute>
		</attributes>
		<plan selected="yes">
			<activity type="dummy" x="6900.0" y="1700.0" end_time="17:28:47" >
			</activity>
			<leg mode="pt">
			</leg>
			<activity type="dummy" x="1100.0" y="4600.0" >
			</activity>
		</plan>

	</person>

<!-- ====================================================================== -->

	<person id="3">
		<attributes>
			<attribute name="hasLicense" class="java.lang.String">false</attribute>
		</attributes>
		<plan selected="yes">
			<activity type="dummy" x="7700.0" y="5400.0" end_time="20:14:46" >
			</activity>
			<leg mode="pt">
			</leg>
			<activity type="dummy" x="5600.0" y="8100.0" >
			</activity>
		</plan>

	</person>

<!-- ====================================================================== -->

	<person id="30">
		<attributes>
			<attribute name="hasLicense" class="java.lang.String">false</attribute>
		</attributes>
		<plan selected="yes">
			<activity type="dummy" x="300.0" y="700.0" end_time="18:59:08" >
			</activity>
			<leg mode="pt">
			</leg>
			<activity type="dummy" x="1000.0" y="7000.0" >
			</activity>
		</plan>

	</person>

<!-- ====================================================================== -->

	<person id="31">
		<attributes>
			<attribute name="hasLicense" class="java.lang.String">false</attribute>
		</attributes>
		<plan selected="yes">
			<activity type="dummy" x="3500.0" y="4400.0" end_time="11:49:50" >
			</activity>
			<leg mode="pt">
			</leg>
			<activity type="dummy" x="5600.0" y="9800.0" >
			</activity>
		</plan>

	</person>

<!-- ====================================================================== -->

	<person id="32">
		<attributes>
			<attribute name="hasLicense" class="java.lang.String">false</attribute>
		</attributes>
		<plan selected="yes">
			<activity type="dummy" x="2100.0" y="4800.0" end_time="00:11:34" >
			</activity>
			<leg mode="pt">
			</leg>
			<activity type="dummy" x="2300.0" y="2000.0" >
			</activity>
		</plan>

	</person>

<!-- ====================================================================== -->

	<person id="33">
		<attributes>
			<attribute name="hasLicense" class="java.lang.String">false</attribute>
		</attributes>
		<plan selected="yes">
			<activity type="dummy" x="3200.0" y="5500.0" end_time="19:18:21" >
			</activity>
			<leg mode="pt">
			</leg>
			<activity type="dummy" x="6300.0" y="3300.0" >
			</activity>
		</plan>

	</person>

<!-- ====================================================================== -->

	<person id="34">
		<attributes>
			<attribute name="hasLicense" class="java.lang.String">false</attribute>
		</attributes>
		<plan selected="yes">
			<activity type="dummy" x="5900.0" y="6700.0" end_time="01:15:09" >
			</activity>
			<leg mode="pt">
			</leg>
			<activity type="dummy" x="4400.0" y="9500.0" >
			</activity>
		</plan>

	</person>

<!-- ====================================================================== -->

	<person id="35">
		<attributes>
			<attribute name="hasLicense" class="java.lang.String">false</attribute>
		</attributes>
		<plan selected="yes">
			<activity type="dummy" x="5300.0" y="2600.0" end_time="01:21:23" >
			</activity>
			<leg mode="pt">
			</leg>
			<activity type="dummy" x="7300.0" y="3800.0" >
			</activity>
		</plan>

	</person>

<!-- ====================================================================== -->

	<person id="36">
		<attributes>
			<attribute name="hasLicense" class="java.lang.String">false</attribute>
		</attributes>
		<plan selected="yes">
			<activity type="dummy" x="9500.0" y="9500.0" end_time="11:48:05" >
			</activity>
			<leg mode="pt">
			</leg>
			<activity type="dummy" x="6600.0" y="500.0" >
			</activity>
		</plan>

	</person>

<!-- ====================================================================== -->

	<person id="37">
		<attributes>
			<attribute name="hasLicense" class="java.lang.String">false</attribute>
		</attributes>
		<plan selected="yes">
			<activity type="dummy" x="1600.0" y="300.0" end_time="11:36:33" >
			</activity>
			<leg mode="pt">
			</leg>
			<activity type="dummy" x="2500.0" y="5500.0" >
			</activity>
		</plan>

	</person>

<!-- ====================================================================== -->

	<person id="38">
		<attributes>
			<attribute name="hasLicense" class="java.lang.String">false</attribute>
		</attributes>
		<plan selected="yes">
			<activity type="dummy" x="5900.0" y="6400.0" end_time="18:00:55" >
			</activity>
			<leg mode="pt">
			</leg>
			<activity type="dummy" x="1000.0" y="4200.0" >
			</activity>
		</plan>

	</person>

<!-- ====================================================================== -->

	<person id="39">
		<attributes>
			<attribute name="hasLicense" class="java.lang.String">false</attribute>
		</attributes>
		<plan selected="yes">
			<activity type="dummy" x="600.0" y="3400.0" end_time="15:08:26" >
			</activity>
			<leg mode="pt">
			</leg>
			<activity type="dummy" x="200.0" y="2700.0" >
			</activity>
		</plan>

	</person>

<!-- ====================================================================== -->

	<person id="4">
		<attributes>
			<attribute name="hasLicense" class="java.lang.String">false</attribute>
		</attributes>
		<plan selected="yes">
			<activity type="dummy" x="1000.0" y="5100.0" end_time="07:43:40" >
			</activity>
			<leg mode="pt">
			</leg>
			<activity type="dummy" x="6900.0" y="7000.0" >
			</activity>
		</plan>

	</person>

<!-- ====================================================================== -->

	<person id="40">
		<attributes>
			<attribute name="hasLicense" class="java.lang.String">false</attribute>
		</attributes>
		<plan selected="yes">
			<activity type="dummy" x="7500.0" y="2600.0" end_time="23:28:55" >
			</activity>
			<leg mode="pt">
			</leg>
			<activity type="dummy" x="1700.0" y="7600.0" >
			</activity>
		</plan>

	</person>

<!-- ====================================================================== -->

	<person id="41">
		<attributes>
			<attribute name="hasLicense" class="java.lang.String">false</attribute>
		</attributes>
		<plan selected="yes">
			<activity type="dummy" x="6400.0" y="9800.0" end_time="02:40:31" >
			</activity>
			<leg mode="pt">
			</leg>
			<activity type="dummy" x="4100.0" y="6900.0" >
			</activity>
		</plan>

	</person>

<!-- ====================================================================== -->

	<person id="42">
		<attributes>
			<attribute name="hasLicense" class="java.lang.String">false</attribute>
		</attributes>
		<plan selected="yes">
			<activity type="dummy" x="4900.0" y="6500.0" end_time="18:23:43" >
			</activity>
			<leg mode="pt">
			</leg>
			<activity type="dummy" x="2800.0" y="9300.0" >
			</activity>
		</plan>

	</person>

<!-- ====================================================================== -->

	<person id="43">
		<attributes>
			<attribute name="hasLicense" class="java.lang.String">false</attribute>
		</attributes>
		<plan selected="yes">
			<activity type="dummy" x="5000.0" y="7800.0" end_time="18:17:59" >
			</activity>
			<leg mode="pt">
			</leg>
			<activity type="dummy" x="200.0" y="2900.0" >
			</activity>
		</plan>

	</person>

<!-- ====================================================================== -->

	<person id="44">
		<attributes>
			<attribute name="hasLicense" class="java.lang.String">false</attribute>
		</attributes>
		<plan selected="yes">
			<activity type="dummy" x="4800.0" y="3900.0" end_time="11:38:14" >
			</activity>
			<leg mode="pt">
			</leg>
			<activity type="dummy" x="400.0" y="5700.0" >
			</activity>
		</plan>

	</person>

<!-- ====================================================================== -->

	<person id="45">
		<attributes>
			<attribute name="hasLicense" class="java.lang.String">false</attribute>
		</attributes>
		<plan selected="yes">
			<activity type="dummy" x="8300.0" y="1800.0" end_time="09:55:21" >
			</activity>
			<leg mode="pt">
			</leg>
			<activity type="dummy" x="2600.0" y="2900.0" >
			</activity>
		</plan>

	</person>

<!-- ====================================================================== -->

	<person id="46">
		<attributes>
			<attribute name="hasLicense" class="java.lang.String">false</attribute>
		</attributes>
		<plan selected="yes">
			<activity type="dummy" x="3800.0" y="9400.0" end_time="11:51:49" >
			</activity>
			<leg mode="pt">
			</leg>
			<activity type="dummy" x="1300.0" y="7100.0" >
			</activity>
		</plan>

	</person>

<!-- ====================================================================== -->

	<person id="47">
		<attributes>
			<attribute name="hasLicense" class="java.lang.String">false</attribute>
		</attributes>
		<plan selected="yes">
			<activity type="dummy" x="9000.0" y="2500.0" end_time="14:09:29" >
			</activity>
			<leg mode="pt">
			</leg>
			<activity type="dummy" x="8500.0" y="4800.0" >
			</activity>
		</plan>

	</person>

<!-- ====================================================================== -->

	<person id="48">
		<attributes>
			<attribute name="hasLicense" class="java.lang.String">false</attribute>
		</attributes>
		<plan selected="yes">
			<activity type="dummy" x="6300.0" y="8900.0" end_time="21:11:58" >
			</activity>
			<leg mode="pt">
			</leg>
			<activity type="dummy" x="5800.0" y="9300.0" >
			</activity>
		</plan>

	</person>

<!-- ====================================================================== -->

	<person id="49">
		<attributes>
			<attribute name="hasLicense" class="java.lang.String">false</attribute>
		</attributes>
		<plan selected="yes">
			<activity type="dummy" x="8600.0" y="1900.0" end_time="07:23:21" >
			</activity>
			<leg mode="pt">
			</leg>
			<activity type="dummy" x="2400.0" y="1300.0" >
			</activity>
		</plan>

	</person>

<!-- ====================================================================== -->

	<person id="5">
		<attributes>
			<attribute name="hasLicense" class="java.lang.String">false</attribute>
		</attributes>
		<plan selected="yes">
			<activity type="dummy" x="3700.0" y="7300.0" end_time="18:43:54" >
			</activity>
			<leg mode="pt">
			</leg>
			<activity type="dummy" x="8700.0" y="3300.0" >
			</activity>
		</plan>

	</person>

<!-- ====================================================================== -->

	<person id="50">
		<attributes>
			<attribute name="hasLicense" class="java.lang.String">false</attribute>
		</attributes>
		<plan selected="yes">
			<activity type="dummy" x="900.0" y="8800.0" end_time="18:19:10" >
			</activity>
			<leg mode="pt">
			</leg>
			<activity type="dummy" x="9100.0" y="4000.0" >
			</activity>
		</plan>

	</person>

<!-- ====================================================================== -->

	<person id="51">
		<attributes>
			<attribute name="hasLicense" class="java.lang.String">false</attribute>
		</attributes>
		<plan selected="yes">
			<activity type="dummy" x="2500.0" y="9800.0" end_time="10:15:37" >
			</activity>
			<leg mode="pt">
			</leg>
			<activity type="dummy" x="8600.0" y="1800.0" >
			</activity>
		</plan>

	</person>

<!-- ====================================================================== -->

	<person id="52">
		<attributes>
			<attribute name="hasLicense" class="java.lang.String">false</attribute>
		</attributes>
		<plan selected="yes">
			<activity type="dummy" x="1000.0" y="6300.0" end_time="07:49:53" >
			</activity>
			<leg mode="pt">
			</leg>
			<activity type="dummy" x="1500.0" y="8500.0" >
			</activity>
		</plan>

	</person>

<!-- ====================================================================== -->

	<person id="53">
		<attributes>
			<attribute name="hasLicense" class="java.lang.String">false</attribute>
		</attributes>
		<plan selected="yes">
			<activity type="dummy" x="100.0" y="5100.0" end_time="17:38:03" >
			</activity>
			<leg mode="pt">
			</leg>
			<activity type="dummy" x="2000.0" y="7700.0" >
			</activity>
		</plan>

	</person>

<!-- ====================================================================== -->

	<person id="54">
		<attributes>
			<attribute name="hasLicense" class="java.lang.String">false</attribute>
		</attributes>
		<plan selected="yes">
			<activity type="dummy" x="1900.0" y="9100.0" end_time="03:31:10" >
			</activity>
			<leg mode="pt">
			</leg>
			<activity type="dummy" x="4400.0" y="7600.0" >
			</activity>
		</plan>

	</person>

<!-- ====================================================================== -->

	<person id="55">
		<attributes>
			<attribute name="hasLicense" class="java.lang.String">false</attribute>
		</attributes>
		<plan selected="yes">
			<activity type="dummy" x="0.0" y="5000.0" end_time="22:46:33" >
			</activity>
			<leg mode="pt">
			</leg>
			<activity type="dummy" x="9800.0" y="2300.0" >
			</activity>
		</plan>

	</person>

<!-- ====================================================================== -->

	<person id="56">
		<attributes>
			<attribute name="hasLicense" class="java.lang.String">false</attribute>
		</attributes>
		<plan selected="yes">
			<activity type="dummy" x="1700.0" y="9000.0" end_time="20:36:50" >
			</activity>
			<leg mode="pt">
			</leg>
			<activity type="dummy" x="800.0" y="6800.0" >
			</activity>
		</plan>

	</person>

<!-- ====================================================================== -->

	<person id="57">
		<attributes>
			<attribute name="hasLicense" class="java.lang.String">false</attribute>
		</attributes>
		<plan selected="yes">
			<activity type="dummy" x="4700.0" y="3000.0" end_time="14:48:02" >
			</activity>
			<leg mode="pt">
			</leg>
			<activity type="dummy" x="5700.0" y="7400.0" >
			</activity>
		</plan>

	</person>

<!-- ====================================================================== -->

	<person id="58">
		<attributes>
			<attribute name="hasLicense" class="java.lang.String">false</attribute>
		</attributes>
		<plan selected="yes">
			<activity type="dummy" x="6300.0" y="9100.0" end_time="02:24:25" >
			</activity>
			<leg mode="pt">
			</leg>
			<activity type="dummy" x="4900.0" y="4300.0" >
			</activity>
		</plan>

	</person>

<!-- ====================================================================== -->

	<person id="59">
		<attributes>
			<attribute name="hasLicense" class="java.lang.String">false</attribute>
		</attributes>
		<plan selected="yes">
			<activity type="dummy" x="4400.0" y="5800.0" end_time="08:18:41" >
			</activity>
			<leg mode="pt">
			</leg>
			<activity type="dummy" x="4100.0" y="4700.0" >
			</activity>
		</plan>

	</person>

<!-- ====================================================================== -->

	<person id="6">
		<attributes>
			<attribute name="hasLicense" class="java.lang.String">false</attribute>
		</attributes>
		<plan selected="yes">
			<activity type="dummy" x="8700.0" y="300.0" end_time="03:44:27" >
			</activity>
			<leg mode="pt">
			</leg>
			<activity type="dummy" x="1900.0" y="900.0" >
			</activity>
		</plan>

	</person>

<!-- ====================================================================== -->

	<person id="60">
		<attributes>
			<attribute name="hasLicense" class="java.lang.String">false</attribute>
		</attributes>
		<plan selected="yes">
			<activity type="dummy" x="2400.0" y="8900.0" end_time="08:03:25" >
			</activity>
			<leg mode="pt">
			</leg>
			<activity type="dummy" x="6200.0" y="9200.0" >
			</activity>
		</plan>

	</person>

<!-- ====================================================================== -->

	<person id="61">
		<attributes>
			<attribute name="hasLicense" class="java.lang.String">false</attribute>
		</attributes>
		<plan selected="yes">
			<activity type="dummy" x="900.0" y="1500.0" end_time="02:20:51" >
			</activity>
			<leg mode="pt">
			</leg>
			<activity type="dummy" x="7500.0" y="7200.0" >
			</activity>
		</plan>

	</person>

<!-- ====================================================================== -->

	<person id="62">
		<attributes>
			<attribute name="hasLicense" class="java.lang.String">false</attribute>
		</attributes>
		<plan selected="yes">
			<activity type="dummy" x="8300.0" y="3600.0" end_time="17:08:01" >
			</activity>
			<leg mode="pt">
			</leg>
			<activity type="dummy" x="3000.0" y="5900.0" >
			</activity>
		</plan>

	</person>

<!-- ====================================================================== -->

	<person id="63">
		<attributes>
			<attribute name="hasLicense" class="java.lang.String">false</attribute>
		</attributes>
		<plan selected="yes">
			<activity type="dummy" x="1600.0" y="6600.0" end_time="01:57:47" >
			</activity>
			<leg mode="pt">
			</leg>
			<activity type="dummy" x="9900.0" y="3700.0" >
			</activity>
		</plan>

	</person>

<!-- ====================================================================== -->

	<person id="64">
		<attributes>
			<attribute name="hasLicense" class="java.lang.String">false</attribute>
		</attributes>
		<plan selected="yes">
			<activity type="dummy" x="7700.0" y="5400.0" end_time="08:00:41" >
			</activity>
			<leg mode="pt">
			</leg>
			<activity type="dummy" x="6400.0" y="3900.0" >
			</activity>
		</plan>

	</person>

<!-- ====================================================================== -->

	<person id="65">
		<attributes>
			<attribute name="hasLicense" class="java.lang.String">false</attribute>
		</attributes>
		<plan selected="yes">
			<activity type="dummy" x="1700.0" y="6700.0" end_time="17:03:55" >
			</activity>
			<leg mode="pt">
			</leg>
			<activity type="dummy" x="2700.0" y="9900.0" >
			</activity>
		</plan>

	</person>

<!-- ====================================================================== -->

	<person id="66">
		<attributes>
			<attribute name="hasLicense" class="java.lang.String">false</attribute>
		</attributes>
		<plan selected="yes">
			<activity type="dummy" x="8800.0" y="900.0" end_time="22:08:03" >
			</activity>
			<leg mode="pt">
			</leg>
			<activity type="dummy" x="7800.0" y="9300.0" >
			</activity>
		</plan>

	</person>

<!-- ====================================================================== -->

	<person id="67">
		<attributes>
			<attribute name="hasLicense" class="java.lang.String">false</attribute>
		</attributes>
		<plan selected="yes">
			<activity type="dummy" x="6000.0" y="9900.0" end_time="15:37:46" >
			</activity>
			<leg mode="pt">
			</leg>
			<activity type="dummy" x="5900.0" y="1100.0" >
			</activity>
		</plan>

	</person>

<!-- ====================================================================== -->

	<person id="68">
		<attributes>
			<attribute name="hasLicense" class="java.lang.String">false</attribute>
		</attributes>
		<plan selected="yes">
			<activity type="dummy" x="3400.0" y="7500.0" end_time="20:03:51" >
			</activity>
			<leg mode="pt">
			</leg>
			<activity type="dummy" x="8000.0" y="5900.0" >
			</activity>
		</plan>

	</person>

<!-- ====================================================================== -->

	<person id="69">
		<attributes>
			<attribute name="hasLicense" class="java.lang.String">false</attribute>
		</attributes>
		<plan selected="yes">
			<activity type="dummy" x="7700.0" y="6400.0" end_time="08:11:05" >
			</activity>
			<leg mode="pt">
			</leg>
			<activity type="dummy" x="6100.0" y="5100.0" >
			</activity>
		</plan>

	</person>

<!-- ====================================================================== -->

	<person id="7">
		<attributes>
			<attribute name="hasLicense" class="java.lang.String">false</attribute>
		</attributes>
		<plan selected="yes">
			<activity type="dummy" x="5400.0" y="4000.0" end_time="08:16:01" >
			</activity>
			<leg mode="pt">
			</leg>
			<activity type="dummy" x="3400.0" y="800.0" >
			</activity>
		</plan>

	</person>

<!-- ====================================================================== -->

	<person id="70">
		<attributes>
			<attribute name="hasLicense" class="java.lang.String">false</attribute>
		</attributes>
		<plan selected="yes">
			<activity type="dummy" x="4000.0" y="3200.0" end_time="02:47:56" >
			</activity>
			<leg mode="pt">
			</leg>
			<activity type="dummy" x="300.0" y="7300.0" >
			</activity>
		</plan>

	</person>

<!-- ====================================================================== -->

	<person id="71">
		<attributes>