<?xml version="1.0" encoding="UTF-8"?>
<!DOCTYPE transitSchedule SYSTEM "http://www.matsim.org/files/dtd/transitSchedule_v2.dtd">

<transitSchedule>

	<transitStops>
		<stopFacility id="15_15-15_15east_pt_trStop" x="1500.0" y="1500.0" linkRefId="15_15-15_15east_pt" isBlocking="false"/>
		<stopFacility id="15_15-15_15north_pt_trStop" x="1500.0" y="1500.0" linkRefId="15_15-15_15north_pt" isBlocking="false"/>
		<stopFacility id="15_15-15_15south_pt_trStop" x="1500.0" y="1500.0" linkRefId="15_15-15_15south_pt" isBlocking="false"/>
		<stopFacility id="15_15-15_15west_pt_trStop" x="1500.0" y="1500.0" linkRefId="15_15-15_15west_pt" isBlocking="false"/>
		<stopFacility id="15_25-15_25east_pt_trStop" x="1500.0" y="2500.0" linkRefId="15_25-15_25east_pt" isBlocking="false"/>
		<stopFacility id="15_25-15_25north_pt_trStop" x="1500.0" y="2500.0" linkRefId="15_25-15_25north_pt" isBlocking="false"/>
		<stopFacility id="15_25-15_25south_pt_trStop" x="1500.0" y="2500.0" linkRefId="15_25-15_25south_pt" isBlocking="false"/>
		<stopFacility id="15_25-15_25west_pt_trStop" x="1500.0" y="2500.0" linkRefId="15_25-15_25west_pt" isBlocking="false"/>
		<stopFacility id="15_35-15_35east_pt_trStop" x="1500.0" y="3500.0" linkRefId="15_35-15_35east_pt" isBlocking="false"/>
		<stopFacility id="15_35-15_35north_pt_trStop" x="1500.0" y="3500.0" linkRefId="15_35-15_35north_pt" isBlocking="false"/>
		<stopFacility id="15_35-15_35south_pt_trStop" x="1500.0" y="3500.0" linkRefId="15_35-15_35south_pt" isBlocking="false"/>
		<stopFacility id="15_35-15_35west_pt_trStop" x="1500.0" y="3500.0" linkRefId="15_35-15_35west_pt" isBlocking="false"/>
		<stopFacility id="15_45-15_45east_pt_trStop" x="1500.0" y="4500.0" linkRefId="15_45-15_45east_pt" isBlocking="false"/>
		<stopFacility id="15_45-15_45north_pt_trStop" x="1500.0" y="4500.0" linkRefId="15_45-15_45north_pt" isBlocking="false"/>
		<stopFacility id="15_45-15_45south_pt_trStop" x="1500.0" y="4500.0" linkRefId="15_45-15_45south_pt" isBlocking="false"/>
		<stopFacility id="15_45-15_45west_pt_trStop" x="1500.0" y="4500.0" linkRefId="15_45-15_45west_pt" isBlocking="false"/>
		<stopFacility id="15_5-15_5east_pt_trStop" x="1500.0" y="500.0" linkRefId="15_5-15_5east_pt" isBlocking="false"/>
		<stopFacility id="15_5-15_5north_pt_trStop" x="1500.0" y="500.0" linkRefId="15_5-15_5north_pt" isBlocking="false"/>
		<stopFacility id="15_5-15_5west_pt_trStop" x="1500.0" y="500.0" linkRefId="15_5-15_5west_pt" isBlocking="false"/>
		<stopFacility id="15_55-15_55east_pt_trStop" x="1500.0" y="5500.0" linkRefId="15_55-15_55east_pt" isBlocking="false"/>
		<stopFacility id="15_55-15_55north_pt_trStop" x="1500.0" y="5500.0" linkRefId="15_55-15_55north_pt" isBlocking="false"/>
		<stopFacility id="15_55-15_55south_pt_trStop" x="1500.0" y="5500.0" linkRefId="15_55-15_55south_pt" isBlocking="false"/>
		<stopFacility id="15_55-15_55west_pt_trStop" x="1500.0" y="5500.0" linkRefId="15_55-15_55west_pt" isBlocking="false"/>
		<stopFacility id="15_5north-15_5_pt_trStop" x="1500.0" y="500.0" linkRefId="15_5north-15_5_pt" isBlocking="false"/>
		<stopFacility id="15_65-15_65east_pt_trStop" x="1500.0" y="6500.0" linkRefId="15_65-15_65east_pt" isBlocking="false"/>
		<stopFacility id="15_65-15_65north_pt_trStop" x="1500.0" y="6500.0" linkRefId="15_65-15_65north_pt" isBlocking="false"/>
		<stopFacility id="15_65-15_65south_pt_trStop" x="1500.0" y="6500.0" linkRefId="15_65-15_65south_pt" isBlocking="false"/>
		<stopFacility id="15_65-15_65west_pt_trStop" x="1500.0" y="6500.0" linkRefId="15_65-15_65west_pt" isBlocking="false"/>
		<stopFacility id="15_75-15_75east_pt_trStop" x="1500.0" y="7500.0" linkRefId="15_75-15_75east_pt" isBlocking="false"/>
		<stopFacility id="15_75-15_75north_pt_trStop" x="1500.0" y="7500.0" linkRefId="15_75-15_75north_pt" isBlocking="false"/>
		<stopFacility id="15_75-15_75south_pt_trStop" x="1500.0" y="7500.0" linkRefId="15_75-15_75south_pt" isBlocking="false"/>
		<stopFacility id="15_75-15_75west_pt_trStop" x="1500.0" y="7500.0" linkRefId="15_75-15_75west_pt" isBlocking="false"/>
		<stopFacility id="15_85-15_85east_pt_trStop" x="1500.0" y="8500.0" linkRefId="15_85-15_85east_pt" isBlocking="false"/>
		<stopFacility id="15_85-15_85north_pt_trStop" x="1500.0" y="8500.0" linkRefId="15_85-15_85north_pt" isBlocking="false"/>
		<stopFacility id="15_85-15_85south_pt_trStop" x="1500.0" y="8500.0" linkRefId="15_85-15_85south_pt" isBlocking="false"/>
		<stopFacility id="15_85-15_85west_pt_trStop" x="1500.0" y="8500.0" linkRefId="15_85-15_85west_pt" isBlocking="false"/>
		<stopFacility id="15_95-15_95east_pt_trStop" x="1500.0" y="9500.0" linkRefId="15_95-15_95east_pt" isBlocking="false"/>
		<stopFacility id="15_95-15_95south_pt_trStop" x="1500.0" y="9500.0" linkRefId="15_95-15_95south_pt" isBlocking="false"/>
		<stopFacility id="15_95-15_95west_pt_trStop" x="1500.0" y="9500.0" linkRefId="15_95-15_95west_pt" isBlocking="false"/>
		<stopFacility id="15_95south-15_95_pt_trStop" x="1500.0" y="9500.0" linkRefId="15_95south-15_95_pt" isBlocking="false"/>
		<stopFacility id="25_15-25_15east_pt_trStop" x="2500.0" y="1500.0" linkRefId="25_15-25_15east_pt" isBlocking="false"/>
		<stopFacility id="25_15-25_15north_pt_trStop" x="2500.0" y="1500.0" linkRefId="25_15-25_15north_pt" isBlocking="false"/>
		<stopFacility id="25_15-25_15south_pt_trStop" x="2500.0" y="1500.0" linkRefId="25_15-25_15south_pt" isBlocking="false"/>
		<stopFacility id="25_15-25_15west_pt_trStop" x="2500.0" y="1500.0" linkRefId="25_15-25_15west_pt" isBlocking="false"/>
		<stopFacility id="25_25-25_25east_pt_trStop" x="2500.0" y="2500.0" linkRefId="25_25-25_25east_pt" isBlocking="false"/>
		<stopFacility id="25_25-25_25north_pt_trStop" x="2500.0" y="2500.0" linkRefId="25_25-25_25north_pt" isBlocking="false"/>
		<stopFacility id="25_25-25_25south_pt_trStop" x="2500.0" y="2500.0" linkRefId="25_25-25_25south_pt" isBlocking="false"/>
		<stopFacility id="25_25-25_25west_pt_trStop" x="2500.0" y="2500.0" linkRefId="25_25-25_25west_pt" isBlocking="false"/>
		<stopFacility id="25_35-25_35east_pt_trStop" x="2500.0" y="3500.0" linkRefId="25_35-25_35east_pt" isBlocking="false"/>
		<stopFacility id="25_35-25_35north_pt_trStop" x="2500.0" y="3500.0" linkRefId="25_35-25_35north_pt" isBlocking="false"/>
		<stopFacility id="25_35-25_35south_pt_trStop" x="2500.0" y="3500.0" linkRefId="25_35-25_35south_pt" isBlocking="false"/>
		<stopFacility id="25_35-25_35west_pt_trStop" x="2500.0" y="3500.0" linkRefId="25_35-25_35west_pt" isBlocking="false"/>
		<stopFacility id="25_45-25_45east_pt_trStop" x="2500.0" y="4500.0" linkRefId="25_45-25_45east_pt" isBlocking="false"/>
		<stopFacility id="25_45-25_45north_pt_trStop" x="2500.0" y="4500.0" linkRefId="25_45-25_45north_pt" isBlocking="false"/>
		<stopFacility id="25_45-25_45south_pt_trStop" x="2500.0" y="4500.0" linkRefId="25_45-25_45south_pt" isBlocking="false"/>
		<stopFacility id="25_45-25_45west_pt_trStop" x="2500.0" y="4500.0" linkRefId="25_45-25_45west_pt" isBlocking="false"/>
		<stopFacility id="25_5-25_5east_pt_trStop" x="2500.0" y="500.0" linkRefId="25_5-25_5east_pt" isBlocking="false"/>
		<stopFacility id="25_5-25_5north_pt_trStop" x="2500.0" y="500.0" linkRefId="25_5-25_5north_pt" isBlocking="false"/>
		<stopFacility id="25_5-25_5west_pt_trStop" x="2500.0" y="500.0" linkRefId="25_5-25_5west_pt" isBlocking="false"/>
		<stopFacility id="25_55-25_55east_pt_trStop" x="2500.0" y="5500.0" linkRefId="25_55-25_55east_pt" isBlocking="false"/>
		<stopFacility id="25_55-25_55north_pt_trStop" x="2500.0" y="5500.0" linkRefId="25_55-25_55north_pt" isBlocking="false"/>
		<stopFacility id="25_55-25_55south_pt_trStop" x="2500.0" y="5500.0" linkRefId="25_55-25_55south_pt" isBlocking="false"/>
		<stopFacility id="25_55-25_55west_pt_trStop" x="2500.0" y="5500.0" linkRefId="25_55-25_55west_pt" isBlocking="false"/>
		<stopFacility id="25_5north-25_5_pt_trStop" x="2500.0" y="500.0" linkRefId="25_5north-25_5_pt" isBlocking="false"/>
		<stopFacility id="25_65-25_65east_pt_trStop" x="2500.0" y="6500.0" linkRefId="25_65-25_65east_pt" isBlocking="false"/>
		<stopFacility id="25_65-25_65north_pt_trStop" x="2500.0" y="6500.0" linkRefId="25_65-25_65north_pt" isBlocking="false"/>
		<stopFacility id="25_65-25_65south_pt_trStop" x="2500.0" y="6500.0" linkRefId="25_65-25_65south_pt" isBlocking="false"/>
		<stopFacility id="25_65-25_65west_pt_trStop" x="2500.0" y="6500.0" linkRefId="25_65-25_65west_pt" isBlocking="false"/>
		<stopFacility id="25_75-25_75east_pt_trStop" x="2500.0" y="7500.0" linkRefId="25_75-25_75east_pt" isBlocking="false"/>
		<stopFacility id="25_75-25_75north_pt_trStop" x="2500.0" y="7500.0" linkRefId="25_75-25_75north_pt" isBlocking="false"/>
		<stopFacility id="25_75-25_75south_pt_trStop" x="2500.0" y="7500.0" linkRefId="25_75-25_75south_pt" isBlocking="false"/>
		<stopFacility id="25_75-25_75west_pt_trStop" x="2500.0" y="7500.0" linkRefId="25_75-25_75west_pt" isBlocking="false"/>
		<stopFacility id="25_85-25_85east_pt_trStop" x="2500.0" y="8500.0" linkRefId="25_85-25_85east_pt" isBlocking="false"/>
		<stopFacility id="25_85-25_85north_pt_trStop" x="2500.0" y="8500.0" linkRefId="25_85-25_85north_pt" isBlocking="false"/>
		<stopFacility id="25_85-25_85south_pt_trStop" x="2500.0" y="8500.0" linkRefId="25_85-25_85south_pt" isBlocking="false"/>
		<stopFacility id="25_85-25_85west_pt_trStop" x="2500.0" y="8500.0" linkRefId="25_85-25_85west_pt" isBlocking="false"/>
		<stopFacility id="25_95-25_95east_pt_trStop" x="2500.0" y="9500.0" linkRefId="25_95-25_95east_pt" isBlocking="false"/>
		<stopFacility id="25_95-25_95south_pt_trStop" x="2500.0" y="9500.0" linkRefId="25_95-25_95south_pt" isBlocking="false"/>
		<stopFacility id="25_95-25_95west_pt_trStop" x="2500.0" y="9500.0" linkRefId="25_95-25_95west_pt" isBlocking="false"/>
		<stopFacility id="25_95south-25_95_pt_trStop" x="2500.0" y="9500.0" linkRefId="25_95south-25_95_pt" isBlocking="false"/>
		<stopFacility id="35_15-35_15east_pt_trStop" x="3500.0" y="1500.0" linkRefId="35_15-35_15east_pt" isBlocking="false"/>
		<stopFacility id="35_15-35_15north_pt_trStop" x="3500.0" y="1500.0" linkRefId="35_15-35_15north_pt" isBlocking="false"/>
		<stopFacility id="35_15-35_15south_pt_trStop" x="3500.0" y="1500.0" linkRefId="35_15-35_15south_pt" isBlocking="false"/>
		<stopFacility id="35_15-35_15west_pt_trStop" x="3500.0" y="1500.0" linkRefId="35_15-35_15west_pt" isBlocking="false"/>
		<stopFacility id="35_25-35_25east_pt_trStop" x="3500.0" y="2500.0" linkRefId="35_25-35_25east_pt" isBlocking="false"/>
		<stopFacility id="35_25-35_25north_pt_trStop" x="3500.0" y="2500.0" linkRefId="35_25-35_25north_pt" isBlocking="false"/>
		<stopFacility id="35_25-35_25south_pt_trStop" x="3500.0" y="2500.0" linkRefId="35_25-35_25south_pt" isBlocking="false"/>
		<stopFacility id="35_25-35_25west_pt_trStop" x="3500.0" y="2500.0" linkRefId="35_25-35_25west_pt" isBlocking="false"/>
		<stopFacility id="35_35-35_35east_pt_trStop" x="3500.0" y="3500.0" linkRefId="35_35-35_35east_pt" isBlocking="false"/>
		<stopFacility id="35_35-35_35north_pt_trStop" x="3500.0" y="3500.0" linkRefId="35_35-35_35north_pt" isBlocking="false"/>
		<stopFacility id="35_35-35_35south_pt_trStop" x="3500.0" y="3500.0" linkRefId="35_35-35_35south_pt" isBlocking="false"/>
		<stopFacility id="35_35-35_35west_pt_trStop" x="3500.0" y="3500.0" linkRefId="35_35-35_35west_pt" isBlocking="false"/>
		<stopFacility id="35_45-35_45east_pt_trStop" x="3500.0" y="4500.0" linkRefId="35_45-35_45east_pt" isBlocking="false"/>
		<stopFacility id="35_45-35_45north_pt_trStop" x="3500.0" y="4500.0" linkRefId="35_45-35_45north_pt" isBlocking="false"/>
		<stopFacility id="35_45-35_45south_pt_trStop" x="3500.0" y="4500.0" linkRefId="35_45-35_45south_pt" isBlocking="false"/>
		<stopFacility id="35_45-35_45west_pt_trStop" x="3500.0" y="4500.0" linkRefId="35_45-35_45west_pt" isBlocking="false"/>
		<stopFacility id="35_5-35_5east_pt_trStop" x="3500.0" y="500.0" linkRefId="35_5-35_5east_pt" isBlocking="false"/>
		<stopFacility id="35_5-35_5north_pt_trStop" x="3500.0" y="500.0" linkRefId="35_5-35_5north_pt" isBlocking="false"/>
		<stopFacility id="35_5-35_5west_pt_trStop" x="3500.0" y="500.0" linkRefId="35_5-35_5west_pt" isBlocking="false"/>
		<stopFacility id="35_55-35_55east_pt_trStop" x="3500.0" y="5500.0" linkRefId="35_55-35_55east_pt" isBlocking="false"/>
		<stopFacility id="35_55-35_55north_pt_trStop" x="3500.0" y="5500.0" linkRefId="35_55-35_55north_pt" isBlocking="false"/>
		<stopFacility id="35_55-35_55south_pt_trStop" x="3500.0" y="5500.0" linkRefId="35_55-35_55south_pt" isBlocking="false"/>
		<stopFacility id="35_55-35_55west_pt_trStop" x="3500.0" y="5500.0" linkRefId="35_55-35_55west_pt" isBlocking="false"/>
		<stopFacility id="35_5north-35_5_pt_trStop" x="3500.0" y="500.0" linkRefId="35_5north-35_5_pt" isBlocking="false"/>
		<stopFacility id="35_65-35_65east_pt_trStop" x="3500.0" y="6500.0" linkRefId="35_65-35_65east_pt" isBlocking="false"/>
		<stopFacility id="35_65-35_65north_pt_trStop" x="3500.0" y="6500.0" linkRefId="35_65-35_65north_pt" isBlocking="false"/>
		<stopFacility id="35_65-35_65south_pt_trStop" x="3500.0" y="6500.0" linkRefId="35_65-35_65south_pt" isBlocking="false"/>
		<stopFacility id="35_65-35_65west_pt_trStop" x="3500.0" y="6500.0" linkRefId="35_65-35_65west_pt" isBlocking="false"/>
		<stopFacility id="35_75-35_75east_pt_trStop" x="3500.0" y="7500.0" linkRefId="35_75-35_75east_pt" isBlocking="false"/>
		<stopFacility id="35_75-35_75north_pt_trStop" x="3500.0" y="7500.0" linkRefId="35_75-35_75north_pt" isBlocking="false"/>
		<stopFacility id="35_75-35_75south_pt_trStop" x="3500.0" y="7500.0" linkRefId="35_75-35_75south_pt" isBlocking="false"/>
		<stopFacility id="35_75-35_75west_pt_trStop" x="3500.0" y="7500.0" linkRefId="35_75-35_75west_pt" isBlocking="false"/>
		<stopFacility id="35_85-35_85east_pt_trStop" x="3500.0" y="8500.0" linkRefId="35_85-35_85east_pt" isBlocking="false"/>
		<stopFacility id="35_85-35_85north_pt_trStop" x="3500.0" y="8500.0" linkRefId="35_85-35_85north_pt" isBlocking="false"/>
		<stopFacility id="35_85-35_85south_pt_trStop" x="3500.0" y="8500.0" linkRefId="35_85-35_85south_pt" isBlocking="false"/>
		<stopFacility id="35_85-35_85west_pt_trStop" x="3500.0" y="8500.0" linkRefId="35_85-35_85west_pt" isBlocking="false"/>
		<stopFacility id="35_95-35_95east_pt_trStop" x="3500.0" y="9500.0" linkRefId="35_95-35_95east_pt" isBlocking="false"/>
		<stopFacility id="35_95-35_95south_pt_trStop" x="3500.0" y="9500.0" linkRefId="35_95-35_95south_pt" isBlocking="false"/>
		<stopFacility id="35_95-35_95west_pt_trStop" x="3500.0" y="9500.0" linkRefId="35_95-35_95west_pt" isBlocking="false"/>
		<stopFacility id="35_95south-35_95_pt_trStop" x="3500.0" y="9500.0" linkRefId="35_95south-35_95_pt" isBlocking="false"/>
		<stopFacility id="45_15-45_15east_pt_trStop" x="4500.0" y="1500.0" linkRefId="45_15-45_15east_pt" isBlocking="false"/>
		<stopFacility id="45_15-45_15north_pt_trStop" x="4500.0" y="1500.0" linkRefId="45_15-45_15north_pt" isBlocking="false"/>
		<stopFacility id="45_15-45_15south_pt_trStop" x="4500.0" y="1500.0" linkRefId="45_15-45_15south_pt" isBlocking="false"/>
		<stopFacility id="45_15-45_15west_pt_trStop" x="4500.0" y="1500.0" linkRefId="45_15-45_15west_pt" isBlocking="false"/>
		<stopFacility id="45_25-45_25east_pt_trStop" x="4500.0" y="2500.0" linkRefId="45_25-45_25east_pt" isBlocking="false"/>
		<stopFacility id="45_25-45_25north_pt_trStop" x="4500.0" y="2500.0" linkRefId="45_25-45_25north_pt" isBlocking="false"/>
		<stopFacility id="45_25-45_25south_pt_trStop" x="4500.0" y="2500.0" linkRefId="45_25-45_25south_pt" isBlocking="false"/>
		<stopFacility id="45_25-45_25west_pt_trStop" x="4500.0" y="2500.0" linkRefId="45_25-45_25west_pt" isBlocking="false"/>
		<stopFacility id="45_35-45_35east_pt_trStop" x="4500.0" y="3500.0" linkRefId="45_35-45_35east_pt" isBlocking="false"/>
		<stopFacility id="45_35-45_35north_pt_trStop" x="4500.0" y="3500.0" linkRefId="45_35-45_35north_pt" isBlocking="false"/>
		<stopFacility id="45_35-45_35south_pt_trStop" x="4500.0" y="3500.0" linkRefId="45_35-45_35south_pt" isBlocking="false"/>
		<stopFacility id="45_35-45_35west_pt_trStop" x="4500.0" y="3500.0" linkRefId="45_35-45_35west_pt" isBlocking="false"/>
		<stopFacility id="45_45-45_45east_pt_trStop" x="4500.0" y="4500.0" linkRefId="45_45-45_45east_pt" isBlocking="false"/>
		<stopFacility id="45_45-45_45north_pt_trStop" x="4500.0" y="4500.0" linkRefId="45_45-45_45north_pt" isBlocking="false"/>
		<stopFacility id="45_45-45_45south_pt_trStop" x="4500.0" y="4500.0" linkRefId="45_45-45_45south_pt" isBlocking="false"/>
		<stopFacility id="45_45-45_45west_pt_trStop" x="4500.0" y="4500.0" linkRefId="45_45-45_45west_pt" isBlocking="false"/>
		<stopFacility id="45_5-45_5east_pt_trStop" x="4500.0" y="500.0" linkRefId="45_5-45_5east_pt" isBlocking="false"/>
		<stopFacility id="45_5-45_5north_pt_trStop" x="4500.0" y="500.0" linkRefId="45_5-45_5north_pt" isBlocking="false"/>
		<stopFacility id="45_5-45_5west_pt_trStop" x="4500.0" y="500.0" linkRefId="45_5-45_5west_pt" isBlocking="false"/>
		<stopFacility id="45_55-45_55east_pt_trStop" x="4500.0" y="5500.0" linkRefId="45_55-45_55east_pt" isBlocking="false"/>
		<stopFacility id="45_55-45_55north_pt_trStop" x="4500.0" y="5500.0" linkRefId="45_55-45_55north_pt" isBlocking="false"/>
		<stopFacility id="45_55-45_55south_pt_trStop" x="4500.0" y="5500.0" linkRefId="45_55-45_55south_pt" isBlocking="false"/>
		<stopFacility id="45_55-45_55west_pt_trStop" x="4500.0" y="5500.0" linkRefId="45_55-45_55west_pt" isBlocking="false"/>
		<stopFacility id="45_5north-45_5_pt_trStop" x="4500.0" y="500.0" linkRefId="45_5north-45_5_pt" isBlocking="false"/>
		<stopFacility id="45_65-45_65east_pt_trStop" x="4500.0" y="6500.0" linkRefId="45_65-45_65east_pt" isBlocking="false"/>
		<stopFacility id="45_65-45_65north_pt_trStop" x="4500.0" y="6500.0" linkRefId="45_65-45_65north_pt" isBlocking="false"/>
		<stopFacility id="45_65-45_65south_pt_trStop" x="4500.0" y="6500.0" linkRefId="45_65-45_65south_pt" isBlocking="false"/>
		<stopFacility id="45_65-45_65west_pt_trStop" x="4500.0" y="6500.0" linkRefId="45_65-45_65west_pt" isBlocking="false"/>
		<stopFacility id="45_75-45_75east_pt_trStop" x="4500.0" y="7500.0" linkRefId="45_75-45_75east_pt" isBlocking="false"/>
		<stopFacility id="45_75-45_75north_pt_trStop" x="4500.0" y="7500.0" linkRefId="45_75-45_75north_pt" isBlocking="false"/>
		<stopFacility id="45_75-45_75south_pt_trStop" x="4500.0" y="7500.0" linkRefId="45_75-45_75south_pt" isBlocking="false"/>
		<stopFacility id="45_75-45_75west_pt_trStop" x="4500.0" y="7500.0" linkRefId="45_75-45_75west_pt" isBlocking="false"/>
		<stopFacility id="45_85-45_85east_pt_trStop" x="4500.0" y="8500.0" linkRefId="45_85-45_85east_pt" isBlocking="false"/>
		<stopFacility id="45_85-45_85north_pt_trStop" x="4500.0" y="8500.0" linkRefId="45_85-45_85north_pt" isBlocking="false"/>
		<stopFacility id="45_85-45_85south_pt_trStop" x="4500.0" y="8500.0" linkRefId="45_85-45_85south_pt" isBlocking="false"/>
		<stopFacility id="45_85-45_85west_pt_trStop" x="4500.0" y="8500.0" linkRefId="45_85-45_85west_pt" isBlocking="false"/>
		<stopFacility id="45_95-45_95east_pt_trStop" x="4500.0" y="9500.0" linkRefId="45_95-45_95east_pt" isBlocking="false"/>
		<stopFacility id="45_95-45_95south_pt_trStop" x="4500.0" y="9500.0" linkRefId="45_95-45_95south_pt" isBlocking="false"/>
		<stopFacility id="45_95-45_95west_pt_trStop" x="4500.0" y="9500.0" linkRefId="45_95-45_95west_pt" isBlocking="false"/>
		<stopFacility id="45_95south-45_95_pt_trStop" x="4500.0" y="9500.0" linkRefId="45_95south-45_95_pt" isBlocking="false"/>
		<stopFacility id="55_15-55_15east_pt_trStop" x="5500.0" y="1500.0" linkRefId="55_15-55_15east_pt" isBlocking="false"/>
		<stopFacility id="55_15-55_15north_pt_trStop" x="5500.0" y="1500.0" linkRefId="55_15-55_15north_pt" isBlocking="false"/>
		<stopFacility id="55_15-55_15south_pt_trStop" x="5500.0" y="1500.0" linkRefId="55_15-55_15south_pt" isBlocking="false"/>
		<stopFacility id="55_15-55_15west_pt_trStop" x="5500.0" y="1500.0" linkRefId="55_15-55_15west_pt" isBlocking="false"/>
		<stopFacility id="55_25-55_25east_pt_trStop" x="5500.0" y="2500.0" linkRefId="55_25-55_25east_pt" isBlocking="false"/>
		<stopFacility id="55_25-55_25north_pt_trStop" x="5500.0" y="2500.0" linkRefId="55_25-55_25north_pt" isBlocking="false"/>
		<stopFacility id="55_25-55_25south_pt_trStop" x="5500.0" y="2500.0" linkRefId="55_25-55_25south_pt" isBlocking="false"/>
		<stopFacility id="55_25-55_25west_pt_trStop" x="5500.0" y="2500.0" linkRefId="55_25-55_25west_pt" isBlocking="false"/>
		<stopFacility id="55_35-55_35east_pt_trStop" x="5500.0" y="3500.0" linkRefId="55_35-55_35east_pt" isBlocking="false"/>
		<stopFacility id="55_35-55_35north_pt_trStop" x="5500.0" y="3500.0" linkRefId="55_35-55_35north_pt" isBlocking="false"/>
		<stopFacility id="55_35-55_35south_pt_trStop" x="5500.0" y="3500.0" linkRefId="55_35-55_35south_pt" isBlocking="false"/>
		<stopFacility id="55_35-55_35west_pt_trStop" x="5500.0" y="3500.0" linkRefId="55_35-55_35west_pt" isBlocking="false"/>
		<stopFacility id="55_45-55_45east_pt_trStop" x="5500.0" y="4500.0" linkRefId="55_45-55_45east_pt" isBlocking="false"/>
		<stopFacility id="55_45-55_45north_pt_trStop" x="5500.0" y="4500.0" linkRefId="55_45-55_45north_pt" isBlocking="false"/>
		<stopFacility id="55_45-55_45south_pt_trStop" x="5500.0" y="4500.0" linkRefId="55_45-55_45south_pt" isBlocking="false"/>
		<stopFacility id="55_45-55_45west_pt_trStop" x="5500.0" y="4500.0" linkRefId="55_45-55_45west_pt" isBlocking="false"/>
		<stopFacility id="55_5-55_5east_pt_trStop" x="5500.0" y="500.0" linkRefId="55_5-55_5east_pt" isBlocking="false"/>
		<stopFacility id="55_5-55_5north_pt_trStop" x="5500.0" y="500.0" linkRefId="55_5-55_5north_pt" isBlocking="false"/>
		<stopFacility id="55_5-55_5west_pt_trStop" x="5500.0" y="500.0" linkRefId="55_5-55_5west_pt" isBlocking="false"/>
		<stopFacility id="55_55-55_55east_pt_trStop" x="5500.0" y="5500.0" linkRefId="55_55-55_55east_pt" isBlocking="false"/>
		<stopFacility id="55_55-55_55north_pt_trStop" x="5500.0" y="5500.0" linkRefId="55_55-55_55north_pt" isBlocking="false"/>
		<stopFacility id="55_55-55_55south_pt_trStop" x="5500.0" y="5500.0" linkRefId="55_55-55_55south_pt" isBlocking="false"/>
		<stopFacility id="55_55-55_55west_pt_trStop" x="5500.0" y="5500.0" linkRefId="55_55-55_55west_pt" isBlocking="false"/>
		<stopFacility id="55_5north-55_5_pt_trStop" x="5500.0" y="500.0" linkRefId="55_5north-55_5_pt" isBlocking="false"/>
		<stopFacility id="55_65-55_65east_pt_trStop" x="5500.0" y="6500.0" linkRefId="55_65-55_65east_pt" isBlocking="false"/>
		<stopFacility id="55_65-55_65north_pt_trStop" x="5500.0" y="6500.0" linkRefId="55_65-55_65north_pt" isBlocking="false"/>
		<stopFacility id="55_65-55_65south_pt_trStop" x="5500.0" y="6500.0" linkRefId="55_65-55_65south_pt" isBlocking="false"/>
		<stopFacility id="55_65-55_65west_pt_trStop" x="5500.0" y="6500.0" linkRefId="55_65-55_65west_pt" isBlocking="false"/>
		<stopFacility id="55_75-55_75east_pt_trStop" x="5500.0" y="7500.0" linkRefId="55_75-55_75east_pt" isBlocking="false"/>
		<stopFacility id="55_75-55_75north_pt_trStop" x="5500.0" y="7500.0" linkRefId="55_75-55_75north_pt" isBlocking="false"/>
		<stopFacility id="55_75-55_75south_pt_trStop" x="5500.0" y="7500.0" linkRefId="55_75-55_75south_pt" isBlocking="false"/>
		<stopFacility id="55_75-55_75west_pt_trStop" x="5500.0" y="7500.0" linkRefId="55_75-55_75west_pt" isBlocking="false"/>
		<stopFacility id="55_85-55_85east_pt_trStop" x="5500.0" y="8500.0" linkRefId="55_85-55_85east_pt" isBlocking="false"/>
		<stopFacility id="55_85-55_85north_pt_trStop" x="5500.0" y="8500.0" linkRefId="55_85-55_85north_pt" isBlocking="false"/>
		<stopFacility id="55_85-55_85south_pt_trStop" x="5500.0" y="8500.0" linkRefId="55_85-55_85south_pt" isBlocking="false"/>
		<stopFacility id="55_85-55_85west_pt_trStop" x="5500.0" y="8500.0" linkRefId="55_85-55_85west_pt" isBlocking="false"/>
		<stopFacility id="55_95-55_95east_pt_trStop" x="5500.0" y="9500.0" linkRefId="55_95-55_95east_pt" isBlocking="false"/>
		<stopFacility id="55_95-55_95south_pt_trStop" x="5500.0" y="9500.0" linkRefId="55_95-55_95south_pt" isBlocking="false"/>
		<stopFacility id="55_95-55_95west_pt_trStop" x="5500.0" y="9500.0" linkRefId="55_95-55_95west_pt" isBlocking="false"/>
		<stopFacility id="55_95south-55_95_pt_trStop" x="5500.0" y="9500.0" linkRefId="55_95south-55_95_pt" isBlocking="false"/>
		<stopFacility id="5_15-5_15east_pt_trStop" x="500.0" y="1500.0" linkRefId="5_15-5_15east_pt" isBlocking="false"/>
		<stopFacility id="5_15-5_15north_pt_trStop" x="500.0" y="1500.0" linkRefId="5_15-5_15north_pt" isBlocking="false"/>
		<stopFacility id="5_15-5_15south_pt_trStop" x="500.0" y="1500.0" linkRefId="5_15-5_15south_pt" isBlocking="false"/>
		<stopFacility id="5_15east-5_15_pt_trStop" x="500.0" y="1500.0" linkRefId="5_15east-5_15_pt" isBlocking="false"/>
		<stopFacility id="5_25-5_25east_pt_trStop" x="500.0" y="2500.0" linkRefId="5_25-5_25east_pt" isBlocking="false"/>
		<stopFacility id="5_25-5_25north_pt_trStop" x="500.0" y="2500.0" linkRefId="5_25-5_25north_pt" isBlocking="false"/>
		<stopFacility id="5_25-5_25south_pt_trStop" x="500.0" y="2500.0" linkRefId="5_25-5_25south_pt" isBlocking="false"/>
		<stopFacility id="5_25east-5_25_pt_trStop" x="500.0" y="2500.0" linkRefId="5_25east-5_25_pt" isBlocking="false"/>
		<stopFacility id="5_35-5_35east_pt_trStop" x="500.0" y="3500.0" linkRefId="5_35-5_35east_pt" isBlocking="false"/>
		<stopFacility id="5_35-5_35north_pt_trStop" x="500.0" y="3500.0" linkRefId="5_35-5_35north_pt" isBlocking="false"/>
		<stopFacility id="5_35-5_35south_pt_trStop" x="500.0" y="3500.0" linkRefId="5_35-5_35south_pt" isBlocking="false"/>
		<stopFacility id="5_35east-5_35_pt_trStop" x="500.0" y="3500.0" linkRefId="5_35east-5_35_pt" isBlocking="false"/>
		<stopFacility id="5_45-5_45east_pt_trStop" x="500.0" y="4500.0" linkRefId="5_45-5_45east_pt" isBlocking="false"/>
		<stopFacility id="5_45-5_45north_pt_trStop" x="500.0" y="4500.0" linkRefId="5_45-5_45north_pt" isBlocking="false"/>
		<stopFacility id="5_45-5_45south_pt_trStop" x="500.0" y="4500.0" linkRefId="5_45-5_45south_pt" isBlocking="false"/>
		<stopFacility id="5_45east-5_45_pt_trStop" x="500.0" y="4500.0" linkRefId="5_45east-5_45_pt" isBlocking="false"/>
		<stopFacility id="5_5-5_5east_pt_trStop" x="500.0" y="500.0" linkRefId="5_5-5_5east_pt" isBlocking="false"/>
		<stopFacility id="5_5-5_5north_pt_trStop" x="500.0" y="500.0" linkRefId="5_5-5_5north_pt" isBlocking="false"/>
		<stopFacility id="5_55-5_55east_pt_trStop" x="500.0" y="5500.0" linkRefId="5_55-5_55east_pt" isBlocking="false"/>
		<stopFacility id="5_55-5_55north_pt_trStop" x="500.0" y="5500.0" linkRefId="5_55-5_55north_pt" isBlocking="false"/>
		<stopFacility id="5_55-5_55south_pt_trStop" x="500.0" y="5500.0" linkRefId="5_55-5_55south_pt" isBlocking="false"/>
		<stopFacility id="5_55east-5_55_pt_trStop" x="500.0" y="5500.0" linkRefId="5_55east-5_55_pt" isBlocking="false"/>
		<stopFacility id="5_5east-5_5_pt_trStop" x="500.0" y="500.0" linkRefId="5_5east-5_5_pt" isBlocking="false"/>
		<stopFacility id="5_5north-5_5_pt_trStop" x="500.0" y="500.0" linkRefId="5_5north-5_5_pt" isBlocking="false"/>
		<stopFacility id="5_65-5_65east_pt_trStop" x="500.0" y="6500.0" linkRefId="5_65-5_65east_pt" isBlocking="false"/>
		<stopFacility id="5_65-5_65north_pt_trStop" x="500.0" y="6500.0" linkRefId="5_65-5_65north_pt" isBlocking="false"/>
		<stopFacility id="5_65-5_65south_pt_trStop" x="500.0" y="6500.0" linkRefId="5_65-5_65south_pt" isBlocking="false"/>
		<stopFacility id="5_65east-5_65_pt_trStop" x="500.0" y="6500.0" linkRefId="5_65east-5_65_pt" isBlocking="false"/>
		<stopFacility id="5_75-5_75east_pt_trStop" x="500.0" y="7500.0" linkRefId="5_75-5_75east_pt" isBlocking="false"/>
		<stopFacility id="5_75-5_75north_pt_trStop" x="500.0" y="7500.0" linkRefId="5_75-5_75north_pt" isBlocking="false"/>
		<stopFacility id="5_75-5_75south_pt_trStop" x="500.0" y="7500.0" linkRefId="5_75-5_75south_pt" isBlocking="false"/>
		<stopFacility id="5_75east-5_75_pt_trStop" x="500.0" y="7500.0" linkRefId="5_75east-5_75_pt" isBlocking="false"/>
		<stopFacility id="5_85-5_85east_pt_trStop" x="500.0" y="8500.0" linkRefId="5_85-5_85east_pt" isBlocking="false"/>
		<stopFacility id="5_85-5_85north_pt_trStop" x="500.0" y="8500.0" linkRefId="5_85-5_85north_pt" isBlocking="false"/>
		<stopFacility id="5_85-5_85south_pt_trStop" x="500.0" y="8500.0" linkRefId="5_85-5_85south_pt" isBlocking="false"/>
		<stopFacility id="5_85east-5_85_pt_trStop" x="500.0" y="8500.0" linkRefId="5_85east-5_85_pt" isBlocking="false"/>
		<stopFacility id="5_95-5_95east_pt_trStop" x="500.0" y="9500.0" linkRefId="5_95-5_95east_pt" isBlocking="false"/>
		<stopFacility id="5_95-5_95south_pt_trStop" x="500.0" y="9500.0" linkRefId="5_95-5_95south_pt" isBlocking="false"/>
		<stopFacility id="5_95east-5_95_pt_trStop" x="500.0" y="9500.0" linkRefId="5_95east-5_95_pt" isBlocking="false"/>
		<stopFacility id="5_95south-5_95_pt_trStop" x="500.0" y="9500.0" linkRefId="5_95south-5_95_pt" isBlocking="false"/>
		<stopFacility id="65_15-65_15east_pt_trStop" x="6500.0" y="1500.0" linkRefId="65_15-65_15east_pt" isBlocking="false"/>
		<stopFacility id="65_15-65_15north_pt_trStop" x="6500.0" y="1500.0" linkRefId="65_15-65_15north_pt" isBlocking="false"/>
		<stopFacility id="65_15-65_15south_pt_trStop" x="6500.0" y="1500.0" linkRefId="65_15-65_15south_pt" isBlocking="false"/>
		<stopFacility id="65_15-65_15west_pt_trStop" x="6500.0" y="1500.0" linkRefId="65_15-65_15west_pt" isBlocking="false"/>
		<stopFacility id="65_25-65_25east_pt_trStop" x="6500.0" y="2500.0" linkRefId="65_25-65_25east_pt" isBlocking="false"/>
		<stopFacility id="65_25-65_25north_pt_trStop" x="6500.0" y="2500.0" linkRefId="65_25-65_25north_pt" isBlocking="false"/>
		<stopFacility id="65_25-65_25south_pt_trStop" x="6500.0" y="2500.0" linkRefId="65_25-65_25south_pt" isBlocking="false"/>