<?xml version="1.0" encoding="UTF-8"?>

<vehicleDefinitions xmlns="http://www.matsim.org/files/dtd" xmlns:xsi="http://www.w3.org/2001/XMLSchema-instance" xsi:schemaLocation="http://www.matsim.org/files/dtd http://www.matsim.org/files/dtd/vehicleDefinitions_v2.0.xsd">

	<vehicleType id="1">

		<description>train</description>
		<capacity seats="10" standingRoomInPersons="10">

		</capacity>
		<length meter="50.0"/>
		<width meter="1.0"/>
		<maximumVelocity meterPerSecond="23.333333333333332"/>
		<costInformation>

		</costInformation>
		<passengerCarEquivalents pce="1.0"/>
		<networkMode networkMode="train"/>
		<flowEfficiencyFactor factor="1.0"/>
	</vehicleType>

	<vehicle id="tr_0_0" type="1"/>
	<vehicle id="tr_0_1" type="1"/>
	<vehicle id="tr_0_10" type="1"/>
	<vehicle id="tr_0_11" type="1"/>
	<vehicle id="tr_0_2" type="1"/>
	<vehicle id="tr_0_3" type="1"/>
	<vehicle id="tr_0_4" type="1"/>
	<vehicle id="tr_0_5" type="1"/>
	<vehicle id="tr_0_6" type="1"/>
	<vehicle id="tr_0_7" type="1"/>
	<vehicle id="tr_0_8" type="1"/>
	<vehicle id="tr_0_9" type="1"/>
	<vehicle id="tr_10_0" type="1"/>
	<vehicle id="tr_10_1" type="1"/>
	<vehicle id="tr_10_10" type="1"/>
	<vehicle id="tr_10_11" type="1"/>
	<vehicle id="tr_10_2" type="1"/>
	<vehicle id="tr_10_3" type="1"/>
	<vehicle id="tr_10_4" type="1"/>
	<vehicle id="tr_10_5" type="1"/>
	<vehicle id="tr_10_6" type="1"/>
	<vehicle id="tr_10_7" type="1"/>
	<vehicle id="tr_10_8" type="1"/>
	<vehicle id="tr_10_9" type="1"/>
	<vehicle id="tr_11_0" type="1"/>
	<vehicle id="tr_11_1" type="1"/>
	<vehicle id="tr_11_10" type="1"/>
	<vehicle id="tr_11_11" type="1"/>
	<vehicle id="tr_11_2" type="1"/>
	<vehicle id="tr_11_3" type="1"/>
	<vehicle id="tr_11_4" type="1"/>
	<vehicle id="tr_11_5" type="1"/>
	<vehicle id="tr_11_6" type="1"/>
	<vehicle id="tr_11_7" type="1"/>
	<vehicle id="tr_11_8" type="1"/>
	<vehicle id="tr_11_9" type="1"/>
	<vehicle id="tr_12_0" type="1"/>
	<vehicle id="tr_12_1" type="1"/>
	<vehicle id="tr_12_10" type="1"/>
	<vehicle id="tr_12_11" type="1"/>
	<vehicle id="tr_12_2" type="1"/>
	<vehicle id="tr_12_3" type="1"/>
	<vehicle id="tr_12_4" type="1"/>
	<vehicle id="tr_12_5" type="1"/>
	<vehicle id="tr_12_6" type="1"/>
	<vehicle id="tr_12_7" type="1"/>
	<vehicle id="tr_12_8" type="1"/>
	<vehicle id="tr_12_9" type="1"/>
	<vehicle id="tr_13_0" type="1"/>
	<vehicle id="tr_13_1" type="1"/>
	<vehicle id="tr_13_10" type="1"/>
	<vehicle id="tr_13_11" type="1"/>
	<vehicle id="tr_13_2" type="1"/>
	<vehicle id="tr_13_3" type="1"/>
	<vehicle id="tr_13_4" type="1"/>
	<vehicle id="tr_13_5" type="1"/>
	<vehicle id="tr_13_6" type="1"/>
	<vehicle id="tr_13_7" type="1"/>
	<vehicle id="tr_13_8" type="1"/>
	<vehicle id="tr_13_9" type="1"/>
	<vehicle id="tr_14_0" type="1"/>
	<vehicle id="tr_14_1" type="1"/>
	<vehicle id="tr_14_10" type="1"/>
	<vehicle id="tr_14_11" type="1"/>
	<vehicle id="tr_14_2" type="1"/>
	<vehicle id="tr_14_3" type="1"/>
	<vehicle id="tr_14_4" type="1"/>
	<vehicle id="tr_14_5" type="1"/>
	<vehicle id="tr_14_6" type="1"/>
	<vehicle id="tr_14_7" type="1"/>
	<vehicle id="tr_14_8" type="1"/>
	<vehicle id="tr_14_9" type="1"/>
	<vehicle id="tr_15_0" type="1"/>
	<vehicle id="tr_15_1" type="1"/>
	<vehicle id="tr_15_10" type="1"/>
	<vehicle id="tr_15_11" type="1"/>
	<vehicle id="tr_15_2" type="1"/>
	<vehicle id="tr_15_3" type="1"/>
	<vehicle id="tr_15_4" type="1"/>
	<vehicle id="tr_15_5" type="1"/>
	<vehicle id="tr_15_6" type="1"/>
	<vehicle id="tr_15_7" type="1"/>
	<vehicle id="tr_15_8" type="1"/>
	<vehicle id="tr_15_9" type="1"/>
	<vehicle id="tr_16_0" type="1"/>
	<vehicle id="tr_16_1" type="1"/>
	<vehicle id="tr_16_10" type="1"/>
	<vehicle id="tr_16_11" type="1"/>
	<vehicle id="tr_16_2" type="1"/>
	<vehicle id="tr_16_3" type="1"/>
	<vehicle id="tr_16_4" type="1"/>
	<vehicle id="tr_16_5" type="1"/>
	<vehicle id="tr_16_6" type="1"/>
	<vehicle id="tr_16_7" type="1"/>
	<vehicle id="tr_16_8" type="1"/>
	<vehicle id="tr_16_9" type="1"/>
	<vehicle id="tr_17_0" type="1"/>
	<vehicle id="tr_17_1" type="1"/>
	<vehicle id="tr_17_10" type="1"/>
	<vehicle id="tr_17_11" type="1"/>
	<vehicle id="tr_17_2" type="1"/>
	<vehicle id="tr_17_3" type="1"/>
	<vehicle id="tr_17_4" type="1"/>
	<vehicle id="tr_17_5" type="1"/>
	<vehicle id="tr_17_6" type="1"/>
	<vehicle id="tr_17_7" type="1"/>
	<vehicle id="tr_17_8" type="1"/>
	<vehicle id="tr_17_9" type="1"/>
	<vehicle id="tr_18_0" type="1"/>
	<vehicle id="tr_18_1" type="1"/>
	<vehicle id="tr_18_10" type="1"/>
	<vehicle id="tr_18_11" type="1"/>
	<vehicle id="tr_18_2" type="1"/>
	<vehicle id="tr_18_3" type="1"/>
	<vehicle id="tr_18_4" type="1"/>
	<vehicle id="tr_18_5" type="1"/>
	<vehicle id="tr_18_6" type="1"/>
	<vehicle id="tr_18_7" type="1"/>
	<vehicle id="tr_18_8" type="1"/>
	<vehicle id="tr_18_9" type="1"/>
	<vehicle id="tr_19_0" type="1"/>
	<vehicle id="tr_19_1" type="1"/>
	<vehicle id="tr_19_10" type="1"/>
	<vehicle id="tr_19_11" type="1"/>
	<vehicle id="tr_19_2" type="1"/>
	<vehicle id="tr_19_3" type="1"/>
	<vehicle id="tr_19_4" type="1"/>
	<vehicle id="tr_19_5" type="1"/>
	<vehicle id="tr_19_6" type="1"/>
	<vehicle id="tr_19_7" type="1"/>
	<vehicle id="tr_19_8" type="1"/>
	<vehicle id="tr_19_9" type="1"/>
	<vehicle id="tr_1_0" type="1"/>
	<vehicle id="tr_1_1" type="1"/>
	<vehicle id="tr_1_10" type="1"/>
	<vehicle id="tr_1_11" type="1"/>
	<vehicle id="tr_1_2" type="1"/>
	<vehicle id="tr_1_3" type="1"/>
	<vehicle id="tr_1_4" type="1"/>
	<vehicle id="tr_1_5" type="1"/>
	<vehicle id="tr_1_6" type="1"/>
	<vehicle id="tr_1_7" type="1"/>
	<vehicle id="tr_1_8" type="1"/>
	<vehicle id="tr_1_9" type="1"/>
	<vehicle id="tr_20_0" type="1"/>
	<vehicle id="tr_20_1" type="1"/>
	<vehicle id="tr_20_10" type="1"/>
	<vehicle id="tr_20_11" type="1"/>
	<vehicle id="tr_20_2" type="1"/>
	<vehicle id="tr_20_3" type="1"/>
	<vehicle id="tr_20_4" type="1"/>
	<vehicle id="tr_20_5" type="1"/>
	<vehicle id="tr_20_6" type="1"/>
	<vehicle id="tr_20_7" type="1"/>
	<vehicle id="tr_20_8" type="1"/>
	<vehicle id="tr_20_9" type="1"/>
	<vehicle id="tr_21_0" type="1"/>
	<vehicle id="tr_21_1" type="1"/>
	<vehicle id="tr_21_10" type="1"/>
	<vehicle id="tr_21_11" type="1"/>
	<vehicle id="tr_21_2" type="1"/>
	<vehicle id="tr_21_3" type="1"/>
	<vehicle id="tr_21_4" type="1"/>
	<vehicle id="tr_21_5" type="1"/>
	<vehicle id="tr_21_6" type="1"/>
	<vehicle id="tr_21_7" type="1"/>
	<vehicle id="tr_21_8" type="1"/>
	<vehicle id="tr_21_9" type="1"/>
	<vehicle id="tr_22_0" type="1"/>
	<vehicle id="tr_22_1" type="1"/>
	<vehicle id="tr_22_10" type="1"/>
	<vehicle id="tr_22_11" type="1"/>
	<vehicle id="tr_22_2" type="1"/>
	<vehicle id="tr_22_3" type="1"/>
	<vehicle id="tr_22_4" type="1"/>
	<vehicle id="tr_22_5" type="1"/>
	<vehicle id="tr_22_6" type="1"/>
	<vehicle id="tr_22_7" type="1"/>
	<vehicle id="tr_22_8" type="1"/>
	<vehicle id="tr_22_9" type="1"/>
	<vehicle id="tr_23_0" type="1"/>
	<vehicle id="tr_23_1" type="1"/>
	<vehicle id="tr_23_10" type="1"/>
	<vehicle id="tr_23_11" type="1"/>
	<vehicle id="tr_23_2" type="1"/>
	<vehicle id="tr_23_3" type="1"/>
	<vehicle id="tr_23_4" type="1"/>
	<vehicle id="tr_23_5" type="1"/>
	<vehicle id="tr_23_6" type="1"/>
	<vehicle id="tr_23_7" type="1"/>
	<vehicle id="tr_23_8" type="1"/>
	<vehicle id="tr_23_9" type="1"/>
	<vehicle id="tr_24_0" type="1"/>
	<vehicle id="tr_24_1" type="1"/>
	<vehicle id="tr_24_10" type="1"/>
	<vehicle id="tr_24_11" type="1"/>
	<vehicle id="tr_24_2" type="1"/>
	<vehicle id="tr_24_3" type="1"/>
	<vehicle id="tr_24_4" type="1"/>
	<vehicle id="tr_24_5" type="1"/>
	<vehicle id="tr_24_6" type="1"/>
	<vehicle id="tr_24_7" type="1"/>
	<vehicle id="tr_24_8" type="1"/>
	<vehicle id="tr_24_9" type="1"/>
	<vehicle id="tr_25_0" type="1"/>
	<vehicle id="tr_25_1" type="1"/>
	<vehicle id="tr_25_10" type="1"/>
	<vehicle id="tr_25_11" type="1"/>
	<vehicle id="tr_25_2" type="1"/>
	<vehicle id="tr_25_3" type="1"/>
	<vehicle id="tr_25_4" type="1"/>
	<vehicle id="tr_25_5" type="1"/>
	<vehicle id="tr_25_6" type="1"/>
	<vehicle id="tr_25_7" type="1"/>
	<vehicle id="tr_25_8" type="1"/>
	<vehicle id="tr_25_9" type="1"/>
	<vehicle id="tr_26_0" type="1"/>
	<vehicle id="tr_26_1" type="1"/>
	<vehicle id="tr_26_10" type="1"/>
	<vehicle id="tr_26_11" type="1"/>
	<vehicle id="tr_26_2" type="1"/>
	<vehicle id="tr_26_3" type="1"/>
	<vehicle id="tr_26_4" type="1"/>
	<vehicle id="tr_26_5" type="1"/>
	<vehicle id="tr_26_6" type="1"/>
	<vehicle id="tr_26_7" type="1"/>
	<vehicle id="tr_26_8" type="1"/>
	<vehicle id="tr_26_9" type="1"/>
	<vehicle id="tr_27_0" type="1"/>
	<vehicle id="tr_27_1" type="1"/>
	<vehicle id="tr_27_10" type="1"/>
	<vehicle id="tr_27_11" type="1"/>
	<vehicle id="tr_27_2" type="1"/>
	<vehicle id="tr_27_3" type="1"/>
	<vehicle id="tr_27_4" type="1"/>
	<vehicle id="tr_27_5" type="1"/>
	<vehicle id="tr_27_6" type="1"/>
	<vehicle id="tr_27_7" type="1"/>
	<vehicle id="tr_27_8" type="1"/>
	<vehicle id="tr_27_9" type="1"/>
	<vehicle id="tr_28_0" type="1"/>
	<vehicle id="tr_28_1" type="1"/>
	<vehicle id="tr_28_10" type="1"/>
	<vehicle id="tr_28_11" type="1"/>
	<vehicle id="tr_28_2" type="1"/>
	<vehicle id="tr_28_3" type="1"/>
	<vehicle id="tr_28_4" type="1"/>
	<vehicle id="tr_28_5" type="1"/>
	<vehicle id="tr_28_6" type="1"/>
	<vehicle id="tr_28_7" type="1"/>
	<vehicle id="tr_28_8" type="1"/>
	<vehicle id="tr_28_9" type="1"/>
	<vehicle id="tr_29_0" type="1"/>
	<vehicle id="tr_29_1" type="1"/>
	<vehicle id="tr_29_10" type="1"/>
	<vehicle id="tr_29_11" type="1"/>
	<vehicle id="tr_29_2" type="1"/>
	<vehicle id="tr_29_3" type="1"/>
	<vehicle id="tr_29_4" type="1"/>
	<vehicle id="tr_29_5" type="1"/>
	<vehicle id="tr_29_6" type="1"/>
	<vehicle id="tr_29_7" type="1"/>
	<vehicle id="tr_29_8" type="1"/>
	<vehicle id="tr_29_9" type="1"/>
	<vehicle id="tr_2_0" type="1"/>
	<vehicle id="tr_2_1" type="1"/>
	<vehicle id="tr_2_10" type="1"/>
	<vehicle id="tr_2_11" type="1"/>
	<vehicle id="tr_2_2" type="1"/>
	<vehicle id="tr_2_3" type="1"/>
	<vehicle id="tr_2_4" type="1"/>
	<vehicle id="tr_2_5" type="1"/>
	<vehicle id="tr_2_6" type="1"/>
	<vehicle id="tr_2_7" type="1"/>
	<vehicle id="tr_2_8" type="1"/>
	<vehicle id="tr_2_9" type="1"/>
	<vehicle id="tr_30_0" type="1"/>
	<vehicle id="tr_30_1" type="1"/>
	<vehicle id="tr_30_10" type="1"/>
	<vehicle id="tr_30_11" type="1"/>
	<vehicle id="tr_30_2" type="1"/>
	<vehicle id="tr_30_3" type="1"/>
	<vehicle id="tr_30_4" type="1"/>
	<vehicle id="tr_30_5" type="1"/>
	<vehicle id="tr_30_6" type="1"/>
	<vehicle id="tr_30_7" type="1"/>
	<vehicle id="tr_30_8" type="1"/>
	<vehicle id="tr_30_9" type="1"/>
	<vehicle id="tr_31_0" type="1"/>
	<vehicle id="tr_31_1" type="1"/>
	<vehicle id="tr_31_10" type="1"/>
	<vehicle id="tr_31_11" type="1"/>
	<vehicle id="tr_31_2" type="1"/>
	<vehicle id="tr_31_3" type="1"/>
	<vehicle id="tr_31_4" type="1"/>
	<vehicle id="tr_31_5" type="1"/>
	<vehicle id="tr_31_6" type="1"/>
	<vehicle id="tr_31_7" type="1"/>
	<vehicle id="tr_31_8" type="1"/>
	<vehicle id="tr_31_9" type="1"/>
	<vehicle id="tr_32_0" type="1"/>
	<vehicle id="tr_32_1" type="1"/>
	<vehicle id="tr_32_10" type="1"/>
	<vehicle id="tr_32_11" type="1"/>
	<vehicle id="tr_32_2" type="1"/>
	<vehicle id="tr_32_3" type="1"/>
	<vehicle id="tr_32_4" type="1"/>
	<vehicle id="tr_32_5" type="1"/>
	<vehicle id="tr_32_6" type="1"/>
	<vehicle id="tr_32_7" type="1"/>
	<vehicle id="tr_32_8" type="1"/>
	<vehicle id="tr_32_9" type="1"/>
	<vehicle id="tr_33_0" type="1"/>
	<vehicle id="tr_33_1" type="1"/>
	<vehicle id="tr_33_10" type="1"/>
	<vehicle id="tr_33_11" type="1"/>
	<vehicle id="tr_33_2" type="1"/>
	<vehicle id="tr_33_3" type="1"/>
	<vehicle id="tr_33_4" type="1"/>
	<vehicle id="tr_33_5" type="1"/>
	<vehicle id="tr_33_6" type="1"/>
	<vehicle id="tr_33_7" type="1"/>
	<vehicle id="tr_33_8" type="1"/>
	<vehicle id="tr_33_9" type="1"/>
	<vehicle id="tr_34_0" type="1"/>
	<vehicle id="tr_34_1" type="1"/>
	<vehicle id="tr_34_10" type="1"/>
	<vehicle id="tr_34_11" type="1"/>
	<vehicle id="tr_34_2" type="1"/>
	<vehicle id="tr_34_3" type="1"/>
	<vehicle id="tr_34_4" type="1"/>
	<vehicle id="tr_34_5" type="1"/>
	<vehicle id="tr_34_6" type="1"/>
	<vehicle id="tr_34_7" type="1"/>
	<vehicle id="tr_34_8" type="1"/>
	<vehicle id="tr_34_9" type="1"/>
	<vehicle id="tr_35_0" type="1"/>
	<vehicle id="tr_35_1" type="1"/>
	<vehicle id="tr_35_10" type="1"/>
	<vehicle id="tr_35_11" type="1"/>
	<vehicle id="tr_35_2" type="1"/>
	<vehicle id="tr_35_3" type="1"/>
	<vehicle id="tr_35_4" type="1"/>
	<vehicle id="tr_35_5" type="1"/>
	<vehicle id="tr_35_6" type="1"/>
	<vehicle id="tr_35_7" type="1"/>
	<vehicle id="tr_35_8" type="1"/>
	<vehicle id="tr_35_9" type="1"/>
	<vehicle id="tr_36_0" type="1"/>
	<vehicle id="tr_36_1" type="1"/>
	<vehicle id="tr_36_10" type="1"/>
	<vehicle id="tr_36_11" type="1"/>
	<vehicle id="tr_36_2" type="1"/>
	<vehicle id="tr_36_3" type="1"/>
	<vehicle id="tr_36_4" type="1"/>
	<vehicle id="tr_36_5" type="1"/>
	<vehicle id="tr_36_6" type="1"/>
	<vehicle id="tr_36_7" type="1"/>
	<vehicle id="tr_36_8" type="1"/>
	<vehicle id="tr_36_9" type="1"/>
	<vehicle id="tr_37_0" type="1"/>
	<vehicle id="tr_37_1" type="1"/>
	<vehicle id="tr_37_10" type="1"/>
	<vehicle id="tr_37_11" type="1"/>
	<vehicle id="tr_37_2" type="1"/>
	<vehicle id="tr_37_3" type="1"/>
	<vehicle id="tr_37_4" type="1"/>
	<vehicle id="tr_37_5" type="1"/>
	<vehicle id="tr_37_6" type="1"/>
	<vehicle id="tr_37_7" type="1"/>
	<vehicle id="tr_37_8" type="1"/>
	<vehicle id="tr_37_9" type="1"/>
	<vehicle id="tr_38_0" type="1"/>
	<vehicle id="tr_38_1" type="1"/>
	<vehicle id="tr_38_10" type="1"/>
	<vehicle id="tr_38_11" type="1"/>
	<vehicle id="tr_38_2" type="1"/>
	<vehicle id="tr_38_3" type="1"/>
	<vehicle id="tr_38_4" type="1"/>
	<vehicle id="tr_38_5" type="1"/>
	<vehicle id="tr_38_6" type="1"/>
	<vehicle id="tr_38_7" type="1"/>
	<vehicle id="tr_38_8" type="1"/>
	<vehicle id="tr_38_9" type="1"/>
	<vehicle id="tr_39_0" type="1"/>
	<vehicle id="tr_39_1" type="1"/>
	<vehicle id="tr_39_10" type="1"/>
	<vehicle id="tr_39_11" type="1"/>
	<vehicle id="tr_39_2" type="1"/>
	<vehicle id="tr_39_3" type="1"/>
	<vehicle id="tr_39_4" type="1"/>
	<vehicle id="tr_39_5" type="1"/>
	<vehicle id="tr_39_6" type="1"/>
	<vehicle id="tr_39_7" type="1"/>
	<vehicle id="tr_39_8" type="1"/>
	<vehicle id="tr_39_9" type="1"/>
	<vehicle id="tr_3_0" type="1"/>
	<vehicle id="tr_3_1" type="1"/>
	<vehicle id="tr_3_10" type="1"/>
	<vehicle id="tr_3_11" type="1"/>
	<vehicle id="tr_3_2" type="1"/>
	<vehicle id="tr_3_3" type="1"/>
	<vehicle id="tr_3_4" type="1"/>
	<vehicle id="tr_3_5" type="1"/>
	<vehicle id="tr_3_6" type="1"/>
	<vehicle id="tr_3_7" type="1"/>
	<vehicle id="tr_3_8" type="1"/>
	<vehicle id="tr_3_9" type="1"/>
	<vehicle id="tr_4_0" type="1"/>
	<vehicle id="tr_4_1" type="1"/>
	<vehicle id="tr_4_10" type="1"/>
	<vehicle id="tr_4_11" type="1"/>
	<vehicle id="tr_4_2" type="1"/>
	<vehicle id="tr_4_3" type="1"/>
	<vehicle id="tr_4_4" type="1"/>
	<vehicle id="tr_4_5" type="1"/>
	<vehicle id="tr_4_6" type="1"/>
	<vehicle id="tr_4_7" type="1"/>
	<vehicle id="tr_4_8" type="1"/>
	<vehicle id="tr_4_9" type="1"/>
	<vehicle id="tr_5_0" type="1"/>
	<vehicle id="tr_5_1" type="1"/>
	<vehicle id="tr_5_10" type="1"/>
	<vehicle id="tr_5_11" type="1"/>
	<vehicle id="tr_5_2" type="1"/>
	<vehicle id="tr_5_3" type="1"/>
	<vehicle id="tr_5_4" type="1"/>
	<vehicle id="tr_5_5" type="1"/>
	<vehicle id="tr_5_6" type="1"/>
	<vehicle id="tr_5_7" type="1"/>
	<vehicle id="tr_5_8" type="1"/>
	<vehicle id="tr_5_9" type="1"/>
	<vehicle id="tr_6_0" type="1"/>
	<vehicle id="tr_6_1" type="1"/>
	<vehicle id="tr_6_10" type="1"/>
	<vehicle id="tr_6_11" type="1"/>
	<vehicle id="tr_6_2" type="1"/>
	<vehicle id="tr_6_3" type="1"/>
	<vehicle id="tr_6_4" type="1"/>
	<vehicle id="tr_6_5" type="1"/>
	<vehicle id="tr_6_6" type="1"/>
	<vehicle id="tr_6_7" type="1"/>
	<vehicle id="tr_6_8" type="1"/>
	<vehicle id="tr_6_9" type="1"/>
	<vehicle id="tr_7_0" type="1"/>
	<vehicle id="tr_7_1" type="1"/>
	<vehicle id="tr_7_10" type="1"/>
	<vehicle id="tr_7_11" type="1"/>
	<vehicle id="tr_7_2" type="1"/>
	<vehicle id="tr_7_3" type="1"/>
	<vehicle id="tr_7_4" type="1"/>
	<vehicle id="tr_7_5" type="1"/>
	<vehicle id="tr_7_6" type="1"/>
	<vehicle id="tr_7_7" type="1"/>
	<vehicle id="tr_7_8" type="1"/>
	<vehicle id="tr_7_9" type="1"/>
	<vehicle id="tr_8_0" type="1"/>
	<vehicle id="tr_8_1" type="1"/>
	<vehicle id="tr_8_10" type="1"/>
	<vehicle id="tr_8_11" type="1"/>
	<vehicle id="tr_8_2" type="1"/>
	<vehicle id="tr_8_3" type="1"/>
	<vehicle id="tr_8_4" type="1"/>
	<vehicle id="tr_8_5" type="1"/>
	<vehicle id="tr_8_6" type="1"/>
	<vehicle id="tr_8_7" type="1"/>
	<vehicle id="tr_8_8" type="1"/>
	<vehicle id="tr_8_9" type="1"/>
	<vehicle id="tr_9_0" type="1"/>
	<vehicle id="tr_9_1" type="1"/>
	<vehicle id="tr_9_10" type="1"/>
	<vehicle id="tr_9_11" type="1"/>
	<vehicle id="tr_9_2" type="1"/>
	<vehicle id="tr_9_3" type="1"/>
	<vehicle id="tr_9_4" type="1"/>
	<vehicle id="tr_9_5" type="1"/>
	<vehicle id="tr_9_6" type="1"/>
	<vehicle id="tr_9_7" type="1"/>
	<vehicle id="tr_9_8" type="1"/>
	<vehicle id="tr_9_9" type="1"/>
		

</vehicleDefinitions>