<?xml version="1.0" encoding="UTF-8"?>
<!DOCTYPE network SYSTEM "http://www.matsim.org/files/dtd/network_v2.dtd">
<network>

<!-- ====================================================================== -->

	<nodes>
		<node id="1104051696" x="462988.83398771187" y="5480827.673324766" >
		</node>
		<node id="1109568387" x="460662.5633599438" y="5481732.619344078" >
		</node>
		<node id="1109568394" x="460933.56810135767" y="5481557.610768764" >
		</node>
		<node id="1109568409" x="460997.89647541085" y="5481530.412064241" >
		</node>
		<node id="1109628966" x="461860.67702541844" y="5480926.993689542" >
		</node>
		<node id="1120310798" x="461127.1638767339" y="5481425.203572202" >
		</node>
		<node id="1125291235" x="462906.70970439963" y="5480894.170905468" >
		</node>
		<node id="1125291237" x="462922.41550466296" y="5480884.669597785" >
		</node>
		<node id="1126992308" x="461405.7513044169" y="5481100.272847961" >
		</node>
		<node id="1126992321" x="461345.6294550051" y="5481289.803268033" >
		</node>
		<node id="1184512491" x="460872.5657819206" y="5482360.7982183425" >
		</node>
		<node id="1184512493" x="460817.0681045193" y="5482227.525025558" >
		</node>
		<node id="1184512506" x="460803.85991719214" y="5482249.967000369" >
		</node>
		<node id="1184512515" x="460847.35358983884" y="5482209.07418986" >
		</node>
		<node id="1184515451" x="460851.2237939876" y="5482324.551037678" >
		</node>
		<node id="1184546797" x="460993.96704125206" y="5482452.097097435" >
		</node>
		<node id="1184546829" x="461004.5482419593" y="5482465.351921354" >
		</node>
		<node id="1185917081" x="460664.67687291134" y="5482034.912837626" >
		</node>
		<node id="1185917084" x="460627.08219283674" y="5481968.887452428" >
		</node>
		<node id="1185917092" x="460646.6985595427" y="5481998.453194955" >
		</node>
		<node id="1185917116" x="460705.02727593493" y="5482083.452299876" >
		</node>
		<node id="1186505425" x="460614.37221776677" y="5481867.649961717" >
		</node>
		<node id="1186749340" x="460621.80892347306" y="5481936.6833769595" >
		</node>
		<node id="1199743113" x="461911.4513659338" y="5481357.9814041285" >
		</node>
		<node id="1199799682" x="462065.93683797866" y="5481476.334449766" >
		</node>
		<node id="1199832277" x="462025.88602799363" y="5481576.963362136" >
		</node>
		<node id="1200013732" x="462244.7311139661" y="5481775.879245673" >
		</node>
		<node id="1200013736" x="462240.5049294012" y="5481794.208592769" >
		</node>
		<node id="121996660" x="462414.543898367" y="5481175.618139762" >
		</node>
		<node id="121996670" x="462507.8752509413" y="5481329.059525146" >
		</node>
		<node id="121996676" x="462543.7926560352" y="5481097.404739113" >
		</node>
		<node id="121996689" x="462759.4687849958" y="5480966.672490653" >
		</node>
		<node id="1282886756" x="461218.06190634676" y="5482516.907485994" >
		</node>
		<node id="1283057057" x="461226.3464198769" y="5482500.560792012" >
		</node>
		<node id="1283057085" x="461091.7612549626" y="5482485.286512892" >
		</node>
		<node id="1283078703" x="460921.74614095164" y="5482428.38774579" >
		</node>
		<node id="1283078712" x="460931.95908069966" y="5482415.462242132" >
		</node>
		<node id="1283078835" x="460991.6581233166" y="5482470.51384574" >
		</node>
		<node id="1283078863" x="460784.72929600836" y="5482260.544214293" >
		</node>
		<node id="1283078889" x="460860.26523011806" y="5482366.389824488" >
		</node>
		<node id="1293894328" x="461557.8230262517" y="5481024.442911264" >
		</node>
		<node id="1293894331" x="461540.1205394832" y="5481028.792406198" >
		</node>
		<node id="1293894391" x="461540.65358515375" y="5481026.309351965" >
		</node>
		<node id="1293894393" x="461555.5418259772" y="5481017.332379907" >
		</node>
		<node id="1293894414" x="461532.3505963671" y="5481032.27147236" >
		</node>
		<node id="1293894445" x="461546.3365312531" y="5481030.949970515" >
		</node>
		<node id="1295955192" x="461653.59219504084" y="5481103.46272454" >
		</node>
		<node id="1295955195" x="461694.0626644408" y="5481097.1638050405" >
		</node>
		<node id="1295955234" x="461712.4863867909" y="5481065.526349458" >
		</node>
		<node id="1298546209" x="461755.3426952029" y="5481175.360165829" >
		</node>
		<node id="1298546228" x="461828.49800270516" y="5481287.383840744" >
		</node>
		<node id="1298546239" x="461806.61042489525" y="5481277.386262009" >
		</node>
		<node id="1316106922" x="462050.4698267335" y="5481665.580186401" >
		</node>
		<node id="1316107047" x="462031.3897079871" y="5481685.091433517" >
		</node>
		<node id="1316107111" x="462082.324122674" y="5481787.467056049" >
		</node>
		<node id="1316107156" x="462056.7384867949" y="5481706.706308551" >
		</node>
		<node id="1316107166" x="462037.9693837678" y="5481732.385826292" >
		</node>
		<node id="1316107237" x="462027.2576504238" y="5481660.638491032" >
		</node>
		<node id="132331226" x="461358.9080256002" y="5481281.771048706" >
		</node>
		<node id="1362647414" x="460805.0787480377" y="5482140.346160102" >
		</node>
		<node id="1378555184" x="461740.8626462268" y="5482354.363636972" >
		</node>
		<node id="1381917319" x="461737.98763733904" y="5482330.624732053" >
		</node>
		<node id="1381917333" x="461762.52738921373" y="5482355.890601074" >
		</node>
		<node id="1381917336" x="461741.6509450191" y="5482359.372306486" >
		</node>
		<node id="1381920623" x="461757.6260799418" y="5482351.9891917715" >
		</node>
		<node id="1410606952" x="461554.45342335594" y="5481032.504904724" >
		</node>
		<node id="1433867717" x="461889.4536176545" y="5481122.546035447" >
		</node>
		<node id="1444755434" x="461300.4745588942" y="5482281.922377316" >
		</node>
		<node id="1444757232" x="461220.55375665845" y="5482294.830655555" >
		</node>
		<node id="1450516809" x="461709.8962299926" y="5481073.204769039" >
		</node>
		<node id="1450516842" x="461765.0673252265" y="5481142.772102229" >
		</node>
		<node id="1450516869" x="461750.1281675474" y="5481167.225020449" >
		</node>
		<node id="1450517128" x="461985.10187730665" y="5481491.994952324" >
		</node>
		<node id="146013804" x="462768.2650256514" y="5480461.292923896" >
		</node>
		<node id="146013817" x="462606.23072834354" y="5480796.526420873" >
		</node>
		<node id="146013828" x="462678.57173205836" y="5480749.958858793" >
		</node>
		<node id="146013833" x="462644.7163721041" y="5480701.883105655" >
		</node>
		<node id="146013842" x="462601.3676471953" y="5480664.000983504" >
		</node>
		<node id="1492307449" x="461925.75295003224" y="5481434.217342867" >
		</node>
		<node id="1497651343" x="461631.0010763021" y="5481477.895636349" >
		</node>
		<node id="1531035107" x="461690.0917099581" y="5480854.376109428" >
		</node>
		<node id="1531035116" x="461689.51668688905" y="5480858.115767621" >
		</node>
		<node id="1531035137" x="461696.60779868683" y="5480873.475460115" >
		</node>
		<node id="1531035343" x="461785.2782501486" y="5481019.74412775" >
		</node>
		<node id="1531035349" x="461778.1681577243" y="5481024.374487641" >
		</node>
		<node id="1531035358" x="461792.99397472787" y="5481030.229919356" >
		</node>
		<node id="1531035448" x="461690.4257770793" y="5481100.191166432" >
		</node>
		<node id="1531035450" x="461713.75580956874" y="5481111.223256921" >
		</node>
		<node id="1565599150" x="461741.1425581922" y="5481454.063954888" >
		</node>
		<node id="1569110270" x="460925.37583554717" y="5482398.243165706" >
		</node>
		<node id="1619163394" x="462878.19864772866" y="5481171.389420752" >
		</node>
		<node id="1623418502" x="462885.6639852366" y="5480761.777483287" >
		</node>
		<node id="162629306" x="461139.1060301954" y="5482494.977550959" >
		</node>
		<node id="162629315" x="461117.7688213649" y="5482506.847885373" >
		</node>
		<node id="1628350654" x="461875.00628231186" y="5481378.270330734" >
		</node>
		<node id="1628359358" x="461872.1953490976" y="5481355.387025702" >
		</node>
		<node id="1628359361" x="461850.57414322544" y="5481388.636166887" >
		</node>
		<node id="1628359372" x="461868.1176449826" y="5481369.95776219" >
		</node>
		<node id="1628400908" x="461969.90137310885" y="5481459.180641402" >
		</node>
		<node id="1628406125" x="461961.08610027167" y="5481536.078085832" >
		</node>
		<node id="1628406128" x="461985.2752621132" y="5481540.812579039" >
		</node>
		<node id="1628411128" x="461984.46310984105" y="5481512.600926273" >
		</node>
		<node id="1628551113" x="462015.9900281962" y="5481505.921933698" >
		</node>
		<node id="1628551114" x="462005.5968230577" y="5481526.862621145" >
		</node>
		<node id="1628788389" x="462080.8823397837" y="5481715.466222949" >
		</node>
		<node id="1628788402" x="462059.1111962054" y="5481731.282681781" >
		</node>
		<node id="1634455747" x="460616.9714270471" y="5481990.973988606" >
		</node>
		<node id="1634455756" x="460826.2537677782" y="5482108.796976383" >
		</node>
		<node id="1634455759" x="460766.0825572212" y="5482233.650445093" >
		</node>
		<node id="1634455769" x="460783.4444620295" y="5482258.11861089" >
		</node>
		<node id="1634480223" x="461500.4597368326" y="5482502.255532844" >
		</node>
		<node id="1635553407" x="462063.21322749753" y="5481770.200288601" >
		</node>
		<node id="1635803731" x="462342.2862085473" y="5481681.4478304" >
		</node>
		<node id="1636519479" x="461803.51766890666" y="5480999.959992046" >
		</node>
		<node id="1637195285" x="462429.2013578431" y="5480296.013028703" >
		</node>
		<node id="1637257696" x="462540.32909467525" y="5480268.366498067" >
		</node>
		<node id="1637307915" x="462067.61140111997" y="5481263.881478284" >
		</node>
		<node id="1643932782" x="461162.8640832805" y="5481666.120065595" >
		</node>
		<node id="1671577984" x="461824.1773657348" y="5480997.8809681935" >
		</node>
		<node id="1722387850" x="460964.9319922347" y="5481599.234377446" >
		</node>
		<node id="1722387860" x="460991.4342261818" y="5481642.738486364" >
		</node>
		<node id="1743821866" x="461344.7611191194" y="5481137.504738976" >
		</node>
		<node id="1743822191" x="461322.4789157495" y="5481322.509465209" >
		</node>
		<node id="1743822687" x="461131.5802785852" y="5481464.585258739" >
		</node>
		<node id="1743822854" x="460937.8628589406" y="5481564.628817842" >
		</node>
		<node id="1743822878" x="460856.745256305" y="5481615.029498363" >
		</node>
		<node id="1743822894" x="460842.53720599704" y="5481630.596489911" >
		</node>
		<node id="1746023857" x="461920.0427992379" y="5480850.254765341" >
		</node>
		<node id="1746028913" x="462119.35787777137" y="5480598.570642559" >
		</node>
		<node id="1746030550" x="462200.8909282902" y="5480521.670039195" >
		</node>
		<node id="1746043975" x="462386.3021954533" y="5480326.18215245" >
		</node>
		<node id="1746052991" x="462587.3858487913" y="5480281.218602623" >
		</node>
		<node id="1750750849" x="462221.9685557256" y="5481015.248400792" >
		</node>
		<node id="1750750866" x="461890.4934389463" y="5481111.698798632" >
		</node>
		<node id="1750842421" x="463192.5628253271" y="5480733.361627771" >
		</node>
		<node id="1751172607" x="463305.3252109507" y="5480913.079271932" >
		</node>
		<node id="1754245066" x="461139.27489551425" y="5481434.367474457" >
		</node>
		<node id="1756265374" x="461641.5435700946" y="5482430.585123535" >
		</node>
		<node id="1756280946" x="461381.36451000324" y="5481884.960877754" >
		</node>
		<node id="1756290981" x="461277.5092183366" y="5481855.222404525" >
		</node>
		<node id="1756290989" x="461218.8736234844" y="5481892.250150037" >
		</node>
		<node id="1756301709" x="461224.72203093255" y="5481628.679736393" >
		</node>
		<node id="1756301712" x="461289.17112631566" y="5481733.831695581" >
		</node>
		<node id="1756960878" x="461623.19448182656" y="5482421.641883372" >
		</node>
		<node id="1757085042" x="462262.427272865" y="5480632.912659272" >
		</node>
		<node id="1757085056" x="462156.27921628166" y="5480767.35135311" >
		</node>
		<node id="1757085063" x="462112.6986251245" y="5480822.798455545" >
		</node>
		<node id="1757085064" x="462099.17688254156" y="5480839.947188197" >
		</node>
		<node id="1757085072" x="462018.2205249219" y="5480942.6167488" >
		</node>
		<node id="1757085075" x="461967.8596227831" y="5481010.141823468" >
		</node>
		<node id="1757085077" x="461911.1577975536" y="5481080.235389912" >
		</node>
		<node id="1757085079" x="461904.8686674554" y="5481088.328649881" >
		</node>
		<node id="1757437969" x="461619.4143122999" y="5482448.440507046" >
		</node>
		<node id="1757437971" x="461625.0824466178" y="5482426.476034998" >
		</node>
		<node id="1757437979" x="461616.04903214826" y="5482406.549483696" >
		</node>
		<node id="1757437993" x="461588.8034071791" y="5482458.895529196" >
		</node>
		<node id="1761544137" x="460918.7276983542" y="5482405.3395681" >
		</node>
		<node id="1762366893" x="461065.6796905909" y="5482211.792635847" >
		</node>
		<node id="1766510799" x="461082.7945966946" y="5482223.133182064" >
		</node>
		<node id="1769873514" x="461475.92072633735" y="5482485.384884412" >
		</node>
		<node id="1772909330" x="461408.3168339003" y="5482485.39561536" >
		</node>
		<node id="1773386543" x="460645.829817602" y="5482021.607078553" >
		</node>
		<node id="1773386549" x="460765.39550561266" y="5482059.50346822" >
		</node>
		<node id="1806886370" x="462450.35775702604" y="5480301.482046346" >
		</node>
		<node id="1806886452" x="462462.8936849555" y="5480322.897873377" >
		</node>
		<node id="1806886460" x="462457.1774979945" y="5480348.185918179" >
		</node>
		<node id="181314314" x="462723.3079483782" y="5480277.098219437" >
		</node>
		<node id="1824777337" x="462228.3077343465" y="5481793.136723376" >
		</node>
		<node id="1838798045" x="462068.5696301641" y="5481655.070226907" >
		</node>
		<node id="1838798047" x="462044.4143449785" y="5481637.416098602" >
		</node>
		<node id="1838987648" x="461774.6705119216" y="5481433.1608247515" >
		</node>
		<node id="186083577" x="460638.7244406737" y="5482006.493403399" >
		</node>
		<node id="186084204" x="461876.4359202739" y="5480931.586505508" >
		</node>
		<node id="186084231" x="461852.76668063505" y="5480918.7216304485" >
		</node>
		<node id="186084236" x="461869.56575156015" y="5480915.624674132" >
		</node>
		<node id="1861417521" x="462565.7974785849" y="5480283.534542772" >
		</node>
		<node id="1861494292" x="462579.982448523" y="5480237.99848563" >
		</node>
		<node id="1861494295" x="462597.1707205259" y="5480264.919447036" >
		</node>
		<node id="188476591" x="461525.5498695285" y="5481446.651563526" >
		</node>
		<node id="188476598" x="461465.49810448295" y="5481482.98611355" >
		</node>
		<node id="188476603" x="461408.0941220783" y="5481517.723867259" >
		</node>
		<node id="1887394933" x="461769.1410357819" y="5482250.668457369" >
		</node>
		<node id="1910266983" x="461661.5888049269" y="5481364.333349755" >
		</node>
		<node id="1912025948" x="461310.4750904492" y="5481576.795252485" >
		</node>
		<node id="1919230174" x="460662.74545500043" y="5482098.543802096" >
		</node>
		<node id="1920711832" x="460947.1354117734" y="5482037.531670866" >
		</node>
		<node id="1920711836" x="460945.3586351473" y="5482054.410339364" >
		</node>
		<node id="1922324024" x="462207.87227338296" y="5481302.010388893" >
		</node>
		<node id="1927733855" x="461854.34417233564" y="5481117.532466111" >
		</node>
		<node id="1927740980" x="461792.3897705319" y="5481013.245955616" >
		</node>
		<node id="1959343835" x="462856.7234579376" y="5481177.061091252" >
		</node>
		<node id="1962295407" x="462656.402161015" y="5481115.022301252" >
		</node>
		<node id="1962329914" x="462914.4174091915" y="5480838.718063189" >
		</node>
		<node id="1962329916" x="462917.09825279954" y="5480814.262718098" >
		</node>
		<node id="1978075231" x="460751.19731427537" y="5482060.128101878" >
		</node>
		<node id="1978075234" x="460728.3585272719" y="5482068.7754091425" >
		</node>
		<node id="1978077722" x="460601.47236460564" y="5481863.584943763" >
		</node>
		<node id="1978123427" x="461964.3546788083" y="5481450.069231216" >
		</node>
		<node id="1978123441" x="462008.90477783117" y="5481596.27107618" >
		</node>
		<node id="1982590583" x="460894.52691125707" y="5482403.6451203665" >
		</node>
		<node id="1989058290" x="462712.03790833085" y="5481457.006906239" >
		</node>
		<node id="2003713057" x="461879.27957982506" y="5480928.008913831" >
		</node>
		<node id="2003726950" x="461946.84176836367" y="5480842.3520787" >
		</node>
		<node id="2003740569" x="461809.014121273" y="5481257.546174599" >
		</node>
		<node id="2003751502" x="461606.69764351513" y="5481118.156687887" >
		</node>
		<node id="2003819851" x="460609.14314671495" y="5481925.890280429" >
		</node>
		<node id="2004844603" x="461119.12443666026" y="5481446.662884422" >
		</node>
		<node id="2005139869" x="461440.421019845" y="5482490.583111705" >
		</node>
		<node id="2005190169" x="460905.71180197905" y="5482414.182644191" >
		</node>
		<node id="2010620879" x="461840.9752123791" y="5481392.583417321" >
		</node>
		<node id="2010625379" x="461781.9184583363" y="5481428.64066504" >
		</node>
		<node id="2010655360" x="461828.2889874963" y="5481244.025374269" >
		</node>
		<node id="2010655361" x="461850.68798803183" y="5481248.416030062" >
		</node>
		<node id="2010655362" x="461816.13973730477" y="5481225.143151876" >
		</node>
		<node id="2010661157" x="461785.0524716867" y="5481176.864272092" >
		</node>
		<node id="2010689776" x="462166.9514328599" y="5480563.6861967845" >
		</node>
		<node id="2010724431" x="462015.13595716626" y="5480729.363185143" >
		</node>
		<node id="2010766289" x="461740.50972978974" y="5481063.006239874" >
		</node>
		<node id="2010766291" x="461729.6250305494" y="5481091.310954469" >
		</node>
		<node id="2010795305" x="461704.1725991363" y="5481070.999094194" >
		</node>
		<node id="2010843505" x="461757.3088473843" y="5481052.748985177" >
		</node>
		<node id="201161615" x="460955.42316486157" y="5482032.780591619" >
		</node>
		<node id="201161619" x="460912.37996005843" y="5481960.921980551" >
		</node>
		<node id="201161625" x="460977.0399690556" y="5482021.307897449" >
		</node>
		<node id="201161629" x="460983.66039712046" y="5482031.533563907" >
		</node>
		<node id="201161633" x="460876.1882689129" y="5482093.284986605" >
		</node>
		<node id="201161637" x="460867.99392862595" y="5482082.759429928" >
		</node>
		<node id="201161691" x="461081.08992430737" y="5482068.383276538" >
		</node>
		<node id="201161696" x="461039.0776949395" y="5482000.663334455" >
		</node>
		<node id="201161704" x="461032.4657871387" y="5481989.592576099" >
		</node>
		<node id="201161708" x="460962.2226023772" y="5482043.727619684" >
		</node>
		<node id="201161711" x="461005.69770499127" y="5482114.382790817" >
		</node>
		<node id="2014274643" x="461868.51209570444" y="5481140.214120141" >
		</node>
		<node id="2015823787" x="461342.63887506985" y="5481139.576585383" >
		</node>
		<node id="2015823792" x="461342.27071757056" y="5481143.848481365" >
		</node>
		<node id="2025256879" x="461875.1556137079" y="5481588.398220171" >
		</node>
		<node id="2026240587" x="461384.9822156601" y="5481112.415970087" >
		</node>
		<node id="2029643046" x="462295.9709746461" y="5480454.850013722" >
		</node>
		<node id="2072565702" x="460909.63471570425" y="5481582.652986175" >
		</node>
		<node id="2135164499" x="461486.4944135238" y="5481780.387497334" >
		</node>
		<node id="2142578382" x="461993.2610143317" y="5480782.848063436" >
		</node>
		<node id="21649767" x="460583.56772950885" y="5481738.170093658" >
		</node>
		<node id="21673578" x="462511.09623766376" y="5480271.580059703" >
		</node>
		<node id="2168173211" x="461567.0431313483" y="5481037.619453602" >
		</node>
		<node id="21686456" x="462042.62835815083" y="5481782.628720625" >
		</node>
		<node id="21686467" x="461977.60051683424" y="5481525.656703816" >
		</node>
		<node id="21686469" x="461969.1379556528" y="5481510.75092254" >
		</node>
		<node id="21686470" x="461951.42355514073" y="5481477.8763513" >
		</node>
		<node id="21686472" x="461933.59004443244" y="5481446.6481210645" >
		</node>
		<node id="21686475" x="461897.5703753408" y="5481393.944719359" >
		</node>
		<node id="21686479" x="461905.51386311156" y="5481361.402686657" >
		</node>
		<node id="21686487" x="462122.92611390824" y="5481250.6895500235" >
		</node>
		<node id="21686490" x="462177.9696721271" y="5481274.645040206" >
		</node>
		<node id="21686492" x="462199.7829051953" y="5481271.914594462" >
		</node>
		<node id="21686503" x="462617.5870873503" y="5481018.328679655" >
		</node>
		<node id="21686509" x="462858.32683703606" y="5480872.908879953" >
		</node>
		<node id="21686515" x="463060.22869279253" y="5480748.975440103" >
		</node>
		<node id="21686594" x="462247.56522339146" y="5481796.0831551375" >
		</node>
		<node id="21686610" x="461889.8060064798" y="5481336.96393719" >
		</node>
		<node id="21732929" x="461367.53204974555" y="5482515.358047507" >
		</node>
		<node id="21732935" x="460902.24148186075" y="5482410.96105871" >
		</node>
		<node id="21732936" x="460834.2584345164" y="5482336.090930131" >
		</node>
		<node id="21732938" x="460698.94155133126" y="5482161.622120457" >
		</node>
		<node id="2189935161" x="462317.3570155393" y="5481676.394454465" >
		</node>
		<node id="2262023602" x="460619.8107541955" y="5481915.718180983" >
		</node>
		<node id="2366151182" x="461958.4691132364" y="5481329.969901231" >
		</node>
		<node id="2394139043" x="461587.6523672332" y="5481071.6398137845" >
		</node>
		<node id="2466692559" x="461791.9941060918" y="5480773.490680312" >
		</node>
		<node id="247897267" x="462603.3110888734" y="5481027.04282912" >
		</node>
		<node id="2480948232" x="462336.36819522874" y="5480537.966620081" >
		</node>
		<node id="2480948236" x="462302.6694854086" y="5480581.414473083" >
		</node>
		<node id="2480948238" x="462287.0024306923" y="5480601.746135339" >
		</node>
		<node id="248539899" x="461106.10184044944" y="5481572.85547371" >
		</node>
		<node id="248539900" x="461160.1497295308" y="5481540.150739279" >
		</node>
		<node id="248539901" x="461167.5924331568" y="5481535.606133578" >
		</node>
		<node id="248539902" x="461172.4537381603" y="5481532.70312049" >
		</node>
		<node id="248539903" x="461230.18068209104" y="5481497.771568919" >
		</node>
		<node id="248539904" x="461351.33460657264" y="5481424.456760467" >
		</node>
		<node id="248539905" x="461408.7392273221" y="5481389.718418085" >
		</node>
		<node id="248539906" x="461468.79166018503" y="5481353.38325224" >
		</node>
		<node id="248539911" x="461132.46681281057" y="5482151.524156582" >
		</node>
		<node id="248539912" x="461056.83769361884" y="5482197.713671935" >
		</node>
		<node id="248780644" x="461184.88392313686" y="5482235.525314379" >
		</node>
		<node id="248780650" x="461009.15497978" y="5482458.37027092" >
		</node>
		<node id="248780652" x="461400.5578508435" y="5482493.1885952335" >
		</node>
		<node id="248780653" x="461499.1297724123" y="5482481.062966772" >
		</node>
		<node id="248780661" x="462044.68035198137" y="5481826.6970607145" >
		</node>
		<node id="248781409" x="461355.15094236843" y="5482248.8147620205" >
		</node>
		<node id="248781410" x="461142.2170506825" y="5482261.644863698" >
		</node>
		<node id="248781411" x="461130.3785442535" y="5482269.1337361485" >
		</node>
		<node id="248781741" x="461715.20342611725" y="5482026.030426715" >
		</node>
		<node id="248781744" x="461833.18048375816" y="5481954.927590471" >
		</node>
		<node id="248782307" x="461292.1852412138" y="5481460.242058248" >
		</node>
		<node id="248782308" x="461551.1663693513" y="5481182.909233059" >
		</node>
		<node id="248782310" x="461604.83210825844" y="5481271.063643465" >
		</node>
		<node id="248782313" x="461487.4281329126" y="5481221.815462709" >
		</node>
		<node id="248782314" x="461621.25232538884" y="5481142.124673" >
		</node>
		<node id="248782316" x="461658.7890019386" y="5481504.038779473" >
		</node>
		<node id="248782319" x="461674.19911846024" y="5481229.095186298" >
		</node>
		<node id="248782320" x="461540.9334650646" y="5481309.725795319" >
		</node>
		<node id="248782321" x="461583.3808807548" y="5481411.656349046" >
		</node>
		<node id="248783352" x="461407.37035956525" y="5481252.443752446" >
		</node>
		<node id="248783354" x="461479.51303262665" y="5481208.785494989" >
		</node>
		<node id="248783355" x="461415.7585086517" y="5481102.814826529" >
		</node>
		<node id="248783356" x="461543.41244484147" y="5481170.122634091" >
		</node>
		<node id="248783357" x="461479.08924127213" y="5481064.544375835" >
		</node>
		<node id="248783753" x="461286.9415449342" y="5481591.037433272" >
		</node>
		<node id="249820010" x="460598.30645189574" y="5481739.064294204" >
		</node>
		<node id="249820012" x="460761.28833937773" y="5481929.463869555" >
		</node>
		<node id="249820013" x="460922.75369289814" y="5481810.499473227" >
		</node>
		<node id="25100837" x="462200.59457243106" y="5481311.722251518" >
		</node>
		<node id="25100845" x="462197.5901944653" y="5481375.771172082" >
		</node>
		<node id="25100858" x="462161.7775910468" y="5481418.467529561" >
		</node>
		<node id="25103088" x="461682.77345456876" y="5481705.516438117" >
		</node>
		<node id="25105821" x="461719.8398649454" y="5481077.026311481" >
		</node>
		<node id="25105953" x="462044.1481146985" y="5480692.705778836" >
		</node>
		<node id="25105975" x="462355.1365671978" y="5480350.589469359" >
		</node>
		<node id="25113818" x="463226.3976179437" y="5480786.666267216" >
		</node>
		<node id="25113830" x="463180.0615693419" y="5480713.300305012" >
		</node>
		<node id="25117304" x="460649.49429257325" y="5481718.182365682" >
		</node>
		<node id="251716286" x="461841.9612245074" y="5481265.253978555" >
		</node>
		<node id="251716287" x="461904.9836120239" y="5481215.8726993" >
		</node>
		<node id="251716547" x="462418.60916426894" y="5480895.930197795" >
		</node>
		<node id="25283546" x="461655.5865001037" y="5482411.085598863" >
		</node>
		<node id="25283557" x="461353.99897688103" y="5482495.2080621375" >
		</node>
		<node id="25283572" x="461683.0132835717" y="5482377.194431629" >
		</node>
		<node id="25283578" x="461721.5948193592" y="5482365.194225845" >
		</node>
		<node id="25283582" x="461777.8502539903" y="5482350.502229658" >
		</node>
		<node id="25283584" x="461819.2849391612" y="5482324.952192626" >
		</node>
		<node id="25283588" x="461877.40040557564" y="5482280.963545642" >
		</node>
		<node id="25283590" x="461921.2146307476" y="5482231.983282597" >
		</node>
		<node id="2530389423" x="462412.1664073951" y="5480596.680496086" >
		</node>
		<node id="2530389426" x="462378.68035042804" y="5480639.4815787105" >
		</node>
		<node id="2530389427" x="462000.63274105266" y="5481036.3853849545" >
		</node>
		<node id="2530389428" x="462049.68271254934" y="5481058.491280694" >
		</node>
		<node id="2530414012" x="462577.5897034923" y="5481417.202054888" >
		</node>
		<node id="2531751675" x="462618.51388478995" y="5481052.120770966" >
		</node>
		<node id="25422067" x="461318.9686579619" y="5481922.881353685" >
		</node>
		<node id="25422068" x="461260.1168669502" y="5481958.976289476" >
		</node>
		<node id="25422070" x="461226.2392856541" y="5481770.889810184" >
		</node>
		<node id="25422071" x="461165.8571560946" y="5481806.840961342" >
		</node>
		<node id="25422074" x="461570.02977350075" y="5482463.708369344" >
		</node>
		<node id="25422075" x="461052.9150830265" y="5481485.569644507" >
		</node>
		<node id="25422076" x="460993.5419061479" y="5481524.139299361" >
		</node>
		<node id="255196631" x="461606.5409175727" y="5481131.921791465" >
		</node>
		<node id="255196633" x="461619.63293953845" y="5481124.036062684" >
		</node>
		<node id="255196642" x="461612.7802898638" y="5481128.153407211" >
		</node>
		<node id="2559690026" x="461463.98964825826" y="5482292.083349723" >
		</node>
		<node id="2559690030" x="461405.0742750929" y="5482327.96598819" >
		</node>
		<node id="2573900712" x="461773.9362671735" y="5481008.650014361" >
		</node>
		<node id="2573900714" x="461770.5404634232" y="5480998.534242852" >
		</node>
		<node id="2573914988" x="461768.6631813736" y="5481030.444722229" >
		</node>
		<node id="2573922164" x="461750.31299889454" y="5481041.624477594" >
		</node>
		<node id="2573937665" x="461947.3400399735" y="5481336.807169036" >
		</node>
		<node id="2574345513" x="461147.792271016" y="5481429.159234484" >
		</node>
		<node id="2574351855" x="461681.7057287098" y="5481105.566736102" >
		</node>
		<node id="2574351856" x="461657.8098182524" y="5481120.2100601345" >
		</node>
		<node id="2574375660" x="461323.30630498443" y="5481303.314032409" >
		</node>
		<node id="2579849703" x="462577.73049562983" y="5480265.664120708" >
		</node>
		<node id="2579849706" x="462575.4899886286" y="5480270.682527959" >
		</node>
		<node id="2579849736" x="462636.9176149951" y="5480277.822050705" >
		</node>
		<node id="2594093285" x="462926.83169133856" y="5480541.797111269" >
		</node>
		<node id="2594093310" x="462925.804984373" y="5480577.3035093555" >
		</node>
		<node id="2594093427" x="462678.49790420406" y="5481015.743950308" >
		</node>
		<node id="2594093430" x="462562.28685078636" y="5481052.094698631" >
		</node>
		<node id="2594093432" x="462467.05008870736" y="5481143.515252099" >
		</node>
		<node id="2594093434" x="462446.8597789189" y="5481155.861570423" >
		</node>
		<node id="2594093438" x="462375.58487818565" y="5481199.445370154" >
		</node>
		<node id="2594093440" x="462344.71943364694" y="5481218.325166374" >
		</node>
		<node id="2594093442" x="462210.4905260781" y="5481266.915221747" >
		</node>
		<node id="2594093458" x="462123.5122599375" y="5481441.646953518" >
		</node>
		<node id="2609395508" x="461716.1862047938" y="5481203.685163869" >
		</node>
		<node id="2610841093" x="461145.5300853802" y="5482039.3287282605" >