<?xml version="1.0" encoding="utf-8"?>
<!DOCTYPE population SYSTEM "http://www.matsim.org/files/dtd/population_v6.dtd">

<population>



<!-- ====================================================================== -->

	<person id="10006_599_126">
		<attributes>
			<attribute name="hasLicense" class="java.lang.String">false</attribute>
		</attributes>
		<plan selected="yes">
			<activity type="dummy" x="97000.0" y="26000.0" end_time="15:12:59" >
			</activity>
			<leg mode="pt">
			</leg>
			<activity type="dummy" x="13000.0" y="43000.0" end_time="24:00:00" >
			</activity>
		</plan>

	</person>

<!-- ====================================================================== -->

	<person id="10006_7308_160">
		<attributes>
			<attribute name="hasLicense" class="java.lang.String">false</attribute>
		</attributes>
		<plan selected="yes">
			<activity type="dummy" x="97000.0" y="26000.0" end_time="04:29:42" >
			</activity>
			<leg mode="pt">
			</leg>
			<activity type="dummy" x="73000.0" y="22000.0" end_time="24:00:00" >
			</activity>
		</plan>

	</person>

<!-- ====================================================================== -->

	<person id="10011_4883_905">
		<attributes>
			<attribute name="hasLicense" class="java.lang.String">false</attribute>
		</attributes>
		<plan selected="yes">
			<activity type="dummy" x="97000.0" y="31000.0" end_time="04:36:35" >
			</activity>
			<leg mode="pt">
			</leg>
			<activity type="dummy" x="51000.0" y="60000.0" end_time="24:00:00" >
			</activity>
		</plan>

	</person>

<!-- ====================================================================== -->

	<person id="10015_257_308">
		<attributes>
			<attribute name="hasLicense" class="java.lang.String">false</attribute>
		</attributes>
		<plan selected="yes">
			<activity type="dummy" x="97000.0" y="34000.0" end_time="16:54:50" >
			</activity>
			<leg mode="pt">
			</leg>
			<activity type="dummy" x="10000.0" y="38000.0" end_time="24:00:00" >
			</activity>
		</plan>

	</person>

<!-- ====================================================================== -->

	<person id="10026_743_624">
		<attributes>
			<attribute name="hasLicense" class="java.lang.String">false</attribute>
		</attributes>
		<plan selected="yes">
			<activity type="dummy" x="97000.0" y="44000.0" end_time="02:30:51" >
			</activity>
			<leg mode="pt">
			</leg>
			<activity type="dummy" x="14000.0" y="72000.0" end_time="24:00:00" >
			</activity>
		</plan>

	</person>

<!-- ====================================================================== -->

	<person id="10029_4493_268">
		<attributes>
			<attribute name="hasLicense" class="java.lang.String">false</attribute>
		</attributes>
		<plan selected="yes">
			<activity type="dummy" x="97000.0" y="47000.0" end_time="01:02:42" >
			</activity>
			<leg mode="pt">
			</leg>
			<activity type="dummy" x="48000.0" y="13000.0" end_time="24:00:00" >
			</activity>
		</plan>

	</person>

<!-- ====================================================================== -->

	<person id="10030_2184_330">
		<attributes>
			<attribute name="hasLicense" class="java.lang.String">false</attribute>
		</attributes>
		<plan selected="yes">
			<activity type="dummy" x="97000.0" y="48000.0" end_time="00:33:06" >
			</activity>
			<leg mode="pt">
			</leg>
			<activity type="dummy" x="27000.0" y="56000.0" end_time="24:00:00" >
			</activity>
		</plan>

	</person>

<!-- ====================================================================== -->

	<person id="10058_8115_720">
		<attributes>
			<attribute name="hasLicense" class="java.lang.String">false</attribute>
		</attributes>
		<plan selected="yes">
			<activity type="dummy" x="97000.0" y="73000.0" end_time="21:46:55" >
			</activity>
			<leg mode="pt">
			</leg>
			<activity type="dummy" x="80000.0" y="40000.0" end_time="24:00:00" >
			</activity>
		</plan>

	</person>

<!-- ====================================================================== -->

	<person id="10073_212_547">
		<attributes>
			<attribute name="hasLicense" class="java.lang.String">false</attribute>
		</attributes>
		<plan selected="yes">
			<activity type="dummy" x="97000.0" y="87000.0" end_time="06:51:02" >
			</activity>
			<leg mode="pt">
			</leg>
			<activity type="dummy" x="100000.0" y="88000.0" end_time="24:00:00" >
			</activity>
		</plan>

	</person>

<!-- ====================================================================== -->

	<person id="10077_5065_105">
		<attributes>
			<attribute name="hasLicense" class="java.lang.String">false</attribute>
		</attributes>
		<plan selected="yes">
			<activity type="dummy" x="97000.0" y="91000.0" end_time="18:56:44" >
			</activity>
			<leg mode="pt">
			</leg>
			<activity type="dummy" x="53000.0" y="23000.0" end_time="24:00:00" >
			</activity>
		</plan>

	</person>

<!-- ====================================================================== -->

	<person id="10095_531_27">
		<attributes>
			<attribute name="hasLicense" class="java.lang.String">false</attribute>
		</attributes>
		<plan selected="yes">
			<activity type="dummy" x="98000.0" y="5000.0" end_time="21:42:06" >
			</activity>
			<leg mode="pt">
			</leg>
			<activity type="dummy" x="12000.0" y="83000.0" end_time="24:00:00" >
			</activity>
		</plan>

	</person>

<!-- ====================================================================== -->

	<person id="10096_6686_377">
		<attributes>
			<attribute name="hasLicense" class="java.lang.String">false</attribute>
		</attributes>
		<plan selected="yes">
			<activity type="dummy" x="98000.0" y="6000.0" end_time="21:53:17" >
			</activity>
			<leg mode="pt">
			</leg>
			<activity type="dummy" x="67000.0" y="68000.0" end_time="24:00:00" >
			</activity>
		</plan>

	</person>

<!-- ====================================================================== -->

	<person id="10144_1971_939">
		<attributes>
			<attribute name="hasLicense" class="java.lang.String">false</attribute>
		</attributes>
		<plan selected="yes">
			<activity type="dummy" x="98000.0" y="50000.0" end_time="05:01:20" >
			</activity>
			<leg mode="pt">
			</leg>
			<activity type="dummy" x="25000.0" y="66000.0" end_time="24:00:00" >
			</activity>
		</plan>

	</person>

<!-- ====================================================================== -->

	<person id="10146_8745_844">
		<attributes>
			<attribute name="hasLicense" class="java.lang.String">false</attribute>
		</attributes>
		<plan selected="yes">
			<activity type="dummy" x="9000.0" y="86000.0" end_time="06:37:03" >
			</activity>
			<leg mode="pt">
			</leg>
			<activity type="dummy" x="86000.0" y="3000.0" end_time="24:00:00" >
			</activity>
		</plan>

	</person>

<!-- ====================================================================== -->

	<person id="10166_6766_40">
		<attributes>
			<attribute name="hasLicense" class="java.lang.String">false</attribute>
		</attributes>
		<plan selected="yes">
			<activity type="dummy" x="98000.0" y="70000.0" end_time="00:28:11" >
			</activity>
			<leg mode="pt">
			</leg>
			<activity type="dummy" x="68000.0" y="39000.0" end_time="24:00:00" >
			</activity>
		</plan>

	</person>

<!-- ====================================================================== -->

	<person id="10175_6155_714">
		<attributes>
			<attribute name="hasLicense" class="java.lang.String">false</attribute>
		</attributes>
		<plan selected="yes">
			<activity type="dummy" x="98000.0" y="78000.0" end_time="17:25:04" >
			</activity>
			<leg mode="pt">
			</leg>
			<activity type="dummy" x="62000.0" y="95000.0" end_time="24:00:00" >
			</activity>
		</plan>

	</person>

<!-- ====================================================================== -->

	<person id="10176_3117_877">
		<attributes>
			<attribute name="hasLicense" class="java.lang.String">false</attribute>
		</attributes>
		<plan selected="yes">
			<activity type="dummy" x="98000.0" y="79000.0" end_time="22:46:44" >
			</activity>
			<leg mode="pt">
			</leg>
			<activity type="dummy" x="35000.0" y="87000.0" end_time="24:00:00" >
			</activity>
		</plan>

	</person>

<!-- ====================================================================== -->

	<person id="10176_5116_197">
		<attributes>
			<attribute name="hasLicense" class="java.lang.String">false</attribute>
		</attributes>
		<plan selected="yes">
			<activity type="dummy" x="98000.0" y="79000.0" end_time="19:33:36" >
			</activity>
			<leg mode="pt">
			</leg>
			<activity type="dummy" x="53000.0" y="68000.0" end_time="24:00:00" >
			</activity>
		</plan>

	</person>

<!-- ====================================================================== -->

	<person id="10200_7762_133">
		<attributes>
			<attribute name="hasLicense" class="java.lang.String">false</attribute>
		</attributes>
		<plan selected="yes">
			<activity type="dummy" x="99000.0" y="0.0" end_time="16:09:45" >
			</activity>
			<leg mode="pt">
			</leg>
			<activity type="dummy" x="77000.0" y="26000.0" end_time="24:00:00" >
			</activity>
		</plan>

	</person>

<!-- ====================================================================== -->

	<person id="1022_1528_454">
		<attributes>
			<attribute name="hasLicense" class="java.lang.String">false</attribute>
		</attributes>
		<plan selected="yes">
			<activity type="dummy" x="17000.0" y="20000.0" end_time="19:53:55" >
			</activity>
			<leg mode="pt">
			</leg>
			<activity type="dummy" x="21000.0" y="71000.0" end_time="24:00:00" >
			</activity>
		</plan>

	</person>

<!-- ====================================================================== -->

	<person id="1054_9077_527">
		<attributes>
			<attribute name="hasLicense" class="java.lang.String">false</attribute>
		</attributes>
		<plan selected="yes">
			<activity type="dummy" x="17000.0" y="49000.0" end_time="23:59:18" >
			</activity>
			<leg mode="pt">
			</leg>
			<activity type="dummy" x="88000.0" y="100000.0" end_time="24:00:00" >
			</activity>
		</plan>

	</person>

<!-- ====================================================================== -->

	<person id="1056_7275_225">
		<attributes>
			<attribute name="hasLicense" class="java.lang.String">false</attribute>
		</attributes>
		<plan selected="yes">
			<activity type="dummy" x="17000.0" y="51000.0" end_time="23:32:05" >
			</activity>
			<leg mode="pt">
			</leg>
			<activity type="dummy" x="72000.0" y="93000.0" end_time="24:00:00" >
			</activity>
		</plan>

	</person>

<!-- ====================================================================== -->

	<person id="1061_1023_13">
		<attributes>
			<attribute name="hasLicense" class="java.lang.String">false</attribute>
		</attributes>
		<plan selected="yes">
			<activity type="dummy" x="17000.0" y="55000.0" end_time="20:08:07" >
			</activity>
			<leg mode="pt">
			</leg>
			<activity type="dummy" x="17000.0" y="21000.0" end_time="24:00:00" >
			</activity>
		</plan>

	</person>

<!-- ====================================================================== -->

	<person id="1072_4809_252">
		<attributes>
			<attribute name="hasLicense" class="java.lang.String">false</attribute>
		</attributes>
		<plan selected="yes">
			<activity type="dummy" x="17000.0" y="65000.0" end_time="19:17:18" >
			</activity>
			<leg mode="pt">
			</leg>
			<activity type="dummy" x="50000.0" y="95000.0" end_time="24:00:00" >
			</activity>
		</plan>

	</person>

<!-- ====================================================================== -->

	<person id="1091_218_302">
		<attributes>
			<attribute name="hasLicense" class="java.lang.String">false</attribute>
		</attributes>
		<plan selected="yes">
			<activity type="dummy" x="0.0" y="18000.0" end_time="19:34:19" >
			</activity>
			<leg mode="pt">
			</leg>
			<activity type="dummy" x="100000.0" y="93000.0" end_time="24:00:00" >
			</activity>
		</plan>

	</person>

<!-- ====================================================================== -->

	<person id="1103_9407_852">
		<attributes>
			<attribute name="hasLicense" class="java.lang.String">false</attribute>
		</attributes>
		<plan selected="yes">
			<activity type="dummy" x="1000.0" y="80000.0" end_time="16:27:18" >
			</activity>
			<leg mode="pt">
			</leg>
			<activity type="dummy" x="91000.0" y="93000.0" end_time="24:00:00" >
			</activity>
		</plan>

	</person>

<!-- ====================================================================== -->

	<person id="1105_117_480">
		<attributes>
			<attribute name="hasLicense" class="java.lang.String">false</attribute>
		</attributes>
		<plan selected="yes">
			<activity type="dummy" x="17000.0" y="94000.0" end_time="07:14:45" >
			</activity>
			<leg mode="pt">
			</leg>
			<activity type="dummy" x="100000.0" y="1000.0" end_time="24:00:00" >
			</activity>
		</plan>

	</person>

<!-- ====================================================================== -->

	<person id="1105_7692_421">
		<attributes>
			<attribute name="hasLicense" class="java.lang.String">false</attribute>
		</attributes>
		<plan selected="yes">
			<activity type="dummy" x="17000.0" y="94000.0" end_time="06:50:30" >
			</activity>
			<leg mode="pt">
			</leg>
			<activity type="dummy" x="76000.0" y="64000.0" end_time="24:00:00" >
			</activity>
		</plan>

	</person>

<!-- ====================================================================== -->

	<person id="1106_6703_986">
		<attributes>
			<attribute name="hasLicense" class="java.lang.String">false</attribute>
		</attributes>
		<plan selected="yes">
			<activity type="dummy" x="17000.0" y="95000.0" end_time="21:43:44" >
			</activity>
			<leg mode="pt">
			</leg>
			<activity type="dummy" x="67000.0" y="83000.0" end_time="24:00:00" >
			</activity>
		</plan>

	</person>

<!-- ====================================================================== -->

	<person id="1107_4840_883">
		<attributes>
			<attribute name="hasLicense" class="java.lang.String">false</attribute>
		</attributes>
		<plan selected="yes">
			<activity type="dummy" x="17000.0" y="96000.0" end_time="20:28:37" >
			</activity>
			<leg mode="pt">
			</leg>
			<activity type="dummy" x="51000.0" y="22000.0" end_time="24:00:00" >
			</activity>
		</plan>

	</person>

<!-- ====================================================================== -->

	<person id="111_9905_301">
		<attributes>
			<attribute name="hasLicense" class="java.lang.String">false</attribute>
		</attributes>
		<plan selected="yes">
			<activity type="dummy" x="99000.0" y="98000.0" end_time="04:53:53" >
			</activity>
			<leg mode="pt">
			</leg>
			<activity type="dummy" x="96000.0" y="36000.0" end_time="24:00:00" >
			</activity>
		</plan>

	</person>

<!-- ====================================================================== -->

	<person id="1139_1625_350">
		<attributes>
			<attribute name="hasLicense" class="java.lang.String">false</attribute>
		</attributes>
		<plan selected="yes">
			<activity type="dummy" x="18000.0" y="24000.0" end_time="18:55:46" >
			</activity>
			<leg mode="pt">
			</leg>
			<activity type="dummy" x="2000.0" y="26000.0" end_time="24:00:00" >
			</activity>
		</plan>

	</person>

<!-- ====================================================================== -->

	<person id="113_5857_796">
		<attributes>
			<attribute name="hasLicense" class="java.lang.String">false</attribute>
		</attributes>
		<plan selected="yes">
			<activity type="dummy" x="99000.0" y="100000.0" end_time="12:02:17" >
			</activity>
			<leg mode="pt">
			</leg>
			<activity type="dummy" x="60000.0" y="29000.0" end_time="24:00:00" >
			</activity>
		</plan>

	</person>

<!-- ====================================================================== -->

	<person id="1169_155_423">
		<attributes>
			<attribute name="hasLicense" class="java.lang.String">false</attribute>
		</attributes>
		<plan selected="yes">
			<activity type="dummy" x="1000.0" y="86000.0" end_time="00:50:20" >
			</activity>
			<leg mode="pt">
			</leg>
			<activity type="dummy" x="100000.0" y="36000.0" end_time="24:00:00" >
			</activity>
		</plan>

	</person>

<!-- ====================================================================== -->

	<person id="1173_3917_661">
		<attributes>
			<attribute name="hasLicense" class="java.lang.String">false</attribute>
		</attributes>
		<plan selected="yes">
			<activity type="dummy" x="18000.0" y="55000.0" end_time="08:49:40" >
			</activity>
			<leg mode="pt">
			</leg>
			<activity type="dummy" x="42000.0" y="100000.0" end_time="24:00:00" >
			</activity>
		</plan>

	</person>

<!-- ====================================================================== -->

	<person id="1173_7038_690">
		<attributes>
			<attribute name="hasLicense" class="java.lang.String">false</attribute>
		</attributes>
		<plan selected="yes">
			<activity type="dummy" x="18000.0" y="55000.0" end_time="05:21:36" >
			</activity>
			<leg mode="pt">
			</leg>
			<activity type="dummy" x="70000.0" y="81000.0" end_time="24:00:00" >
			</activity>
		</plan>

	</person>

<!-- ====================================================================== -->

	<person id="1176_3792_638">
		<attributes>
			<attribute name="hasLicense" class="java.lang.String">false</attribute>
		</attributes>
		<plan selected="yes">
			<activity type="dummy" x="18000.0" y="58000.0" end_time="06:58:30" >
			</activity>
			<leg mode="pt">
			</leg>
			<activity type="dummy" x="4000.0" y="19000.0" end_time="24:00:00" >
			</activity>
		</plan>

	</person>

<!-- ====================================================================== -->

	<person id="1178_3020_274">
		<attributes>
			<attribute name="hasLicense" class="java.lang.String">false</attribute>
		</attributes>
		<plan selected="yes">
			<activity type="dummy" x="18000.0" y="60000.0" end_time="01:33:47" >
			</activity>
			<leg mode="pt">
			</leg>
			<activity type="dummy" x="35000.0" y="0.0" end_time="24:00:00" >
			</activity>
		</plan>

	</person>

<!-- ====================================================================== -->

	<person id="118_2943_865">
		<attributes>
			<attribute name="hasLicense" class="java.lang.String">false</attribute>
		</attributes>
		<plan selected="yes">
			<activity type="dummy" x="100000.0" y="2000.0" end_time="19:03:23" >
			</activity>
			<leg mode="pt">
			</leg>
			<activity type="dummy" x="34000.0" y="32000.0" end_time="24:00:00" >
			</activity>
		</plan>

	</person>

<!-- ====================================================================== -->

	<person id="1190_44_446">
		<attributes>
			<attribute name="hasLicense" class="java.lang.String">false</attribute>
		</attributes>
		<plan selected="yes">
			<activity type="dummy" x="18000.0" y="71000.0" end_time="00:26:12" >
			</activity>
			<leg mode="pt">
			</leg>
			<activity type="dummy" x="99000.0" y="37000.0" end_time="24:00:00" >
			</activity>
		</plan>

	</person>

<!-- ====================================================================== -->

	<person id="1194_8158_755">
		<attributes>
			<attribute name="hasLicense" class="java.lang.String">false</attribute>
		</attributes>
		<plan selected="yes">
			<activity type="dummy" x="18000.0" y="74000.0" end_time="07:40:18" >
			</activity>
			<leg mode="pt">
			</leg>
			<activity type="dummy" x="8000.0" y="8000.0" end_time="24:00:00" >
			</activity>
		</plan>

	</person>

<!-- ====================================================================== -->

	<person id="1199_1271_767">
		<attributes>
			<attribute name="hasLicense" class="java.lang.String">false</attribute>
		</attributes>
		<plan selected="yes">
			<activity type="dummy" x="18000.0" y="79000.0" end_time="15:31:17" >
			</activity>
			<leg mode="pt">
			</leg>
			<activity type="dummy" x="19000.0" y="42000.0" end_time="24:00:00" >
			</activity>
		</plan>

	</person>

<!-- ====================================================================== -->

	<person id="1270_1935_397">
		<attributes>
			<attribute name="hasLicense" class="java.lang.String">false</attribute>
		</attributes>
		<plan selected="yes">
			<activity type="dummy" x="19000.0" y="41000.0" end_time="19:11:41" >
			</activity>
			<leg mode="pt">
			</leg>
			<activity type="dummy" x="25000.0" y="34000.0" end_time="24:00:00" >
			</activity>
		</plan>

	</person>

<!-- ====================================================================== -->

	<person id="1275_254_669">
		<attributes>
			<attribute name="hasLicense" class="java.lang.String">false</attribute>
		</attributes>
		<plan selected="yes">
			<activity type="dummy" x="19000.0" y="46000.0" end_time="00:20:13" >
			</activity>
			<leg mode="pt">
			</leg>
			<activity type="dummy" x="10000.0" y="35000.0" end_time="24:00:00" >
			</activity>
		</plan>

	</person>

<!-- ====================================================================== -->

	<person id="1275_7738_828">
		<attributes>
			<attribute name="hasLicense" class="java.lang.String">false</attribute>
		</attributes>
		<plan selected="yes">
			<activity type="dummy" x="19000.0" y="46000.0" end_time="09:28:20" >
			</activity>
			<leg mode="pt">
			</leg>
			<activity type="dummy" x="77000.0" y="5000.0" end_time="24:00:00" >
			</activity>
		</plan>

	</person>

<!-- ====================================================================== -->

	<person id="1299_9699_963">
		<attributes>
			<attribute name="hasLicense" class="java.lang.String">false</attribute>
		</attributes>
		<plan selected="yes">
			<activity type="dummy" x="19000.0" y="68000.0" end_time="05:50:51" >
			</activity>
			<leg mode="pt">
			</leg>
			<activity type="dummy" x="94000.0" y="53000.0" end_time="24:00:00" >
			</activity>
		</plan>

	</person>

<!-- ====================================================================== -->

	<person id="130_8669_683">
		<attributes>
			<attribute name="hasLicense" class="java.lang.String">false</attribute>
		</attributes>
		<plan selected="yes">
			<activity type="dummy" x="100000.0" y="13000.0" end_time="20:11:34" >
			</activity>
			<leg mode="pt">
			</leg>
			<activity type="dummy" x="8000.0" y="54000.0" end_time="24:00:00" >
			</activity>
		</plan>

	</person>

<!-- ====================================================================== -->

	<person id="1314_3652_167">
		<attributes>
			<attribute name="hasLicense" class="java.lang.String">false</attribute>
		</attributes>
		<plan selected="yes">
			<activity type="dummy" x="0.0" y="20000.0" end_time="23:30:56" >
			</activity>
			<leg mode="pt">
			</leg>
			<activity type="dummy" x="40000.0" y="63000.0" end_time="24:00:00" >
			</activity>
		</plan>

	</person>

<!-- ====================================================================== -->

	<person id="1318_5367_646">
		<attributes>
			<attribute name="hasLicense" class="java.lang.String">false</attribute>
		</attributes>
		<plan selected="yes">
			<activity type="dummy" x="19000.0" y="83000.0" end_time="02:32:37" >
			</activity>
			<leg mode="pt">
			</leg>
			<activity type="dummy" x="55000.0" y="93000.0" end_time="24:00:00" >
			</activity>
		</plan>

	</person>

<!-- ====================================================================== -->

	<person id="1318_7086_700">
		<attributes>
			<attribute name="hasLicense" class="java.lang.String">false</attribute>
		</attributes>
		<plan selected="yes">
			<activity type="dummy" x="19000.0" y="83000.0" end_time="23:19:17" >
			</activity>
			<leg mode="pt">
			</leg>
			<activity type="dummy" x="71000.0" y="24000.0" end_time="24:00:00" >
			</activity>
		</plan>

	</person>

<!-- ====================================================================== -->

	<person id="1331_7312_195">
		<attributes>
			<attribute name="hasLicense" class="java.lang.String">false</attribute>
		</attributes>
		<plan selected="yes">
			<activity type="dummy" x="19000.0" y="95000.0" end_time="17:35:03" >
			</activity>
			<leg mode="pt">
			</leg>
			<activity type="dummy" x="73000.0" y="26000.0" end_time="24:00:00" >
			</activity>
		</plan>

	</person>

<!-- ====================================================================== -->

	<person id="1345_6597_127">
		<attributes>
			<attribute name="hasLicense" class="java.lang.String">false</attribute>
		</attributes>
		<plan selected="yes">
			<activity type="dummy" x="20000.0" y="7000.0" end_time="11:04:20" >
			</activity>
			<leg mode="pt">
			</leg>
			<activity type="dummy" x="66000.0" y="89000.0" end_time="24:00:00" >
			</activity>
		</plan>

	</person>

<!-- ====================================================================== -->

	<person id="1346_2101_821">
		<attributes>
			<attribute name="hasLicense" class="java.lang.String">false</attribute>
		</attributes>
		<plan selected="yes">
			<activity type="dummy" x="20000.0" y="8000.0" end_time="03:07:30" >
			</activity>
			<leg mode="pt">
			</leg>
			<activity type="dummy" x="26000.0" y="82000.0" end_time="24:00:00" >
			</activity>
		</plan>

	</person>

<!-- ====================================================================== -->

	<person id="1383_6412_492">
		<attributes>
			<attribute name="hasLicense" class="java.lang.String">false</attribute>
		</attributes>
		<plan selected="yes">
			<activity type="dummy" x="20000.0" y="41000.0" end_time="06:08:18" >
			</activity>
			<leg mode="pt">
			</leg>
			<activity type="dummy" x="65000.0" y="24000.0" end_time="24:00:00" >
			</activity>
		</plan>

	</person>

<!-- ====================================================================== -->

	<person id="1386_8121_483">
		<attributes>
			<attribute name="hasLicense" class="java.lang.String">false</attribute>
		</attributes>
		<plan selected="yes">
			<activity type="dummy" x="20000.0" y="44000.0" end_time="17:43:32" >
			</activity>
			<leg mode="pt">
			</leg>
			<activity type="dummy" x="80000.0" y="46000.0" end_time="24:00:00" >
			</activity>
		</plan>

	</person>

<!-- ====================================================================== -->

	<person id="1398_8820_681">
		<attributes>
			<attribute name="hasLicense" class="java.lang.String">false</attribute>
		</attributes>
		<plan selected="yes">
			<activity type="dummy" x="20000.0" y="55000.0" end_time="23:01:23" >
			</activity>
			<leg mode="pt">
			</leg>
			<activity type="dummy" x="86000.0" y="70000.0" end_time="24:00:00" >
			</activity>
		</plan>

	</person>

<!-- ====================================================================== -->

	<person id="1408_3760_744">
		<attributes>
			<attribute name="hasLicense" class="java.lang.String">false</attribute>
		</attributes>
		<plan selected="yes">
			<activity type="dummy" x="20000.0" y="64000.0" end_time="16:16:56" >
			</activity>
			<leg mode="pt">
			</leg>
			<activity type="dummy" x="41000.0" y="59000.0" end_time="24:00:00" >
			</activity>
		</plan>

	</person>

<!-- ====================================================================== -->

	<person id="1417_256_552">
		<attributes>
			<attribute name="hasLicense" class="java.lang.String">false</attribute>
		</attributes>
		<plan selected="yes">
			<activity type="dummy" x="20000.0" y="72000.0" end_time="02:50:15" >
			</activity>
			<leg mode="pt">
			</leg>
			<activity type="dummy" x="10000.0" y="37000.0" end_time="24:00:00" >
			</activity>
		</plan>

	</person>

<!-- ====================================================================== -->

	<person id="1428_3507_352">
		<attributes>
			<attribute name="hasLicense" class="java.lang.String">false</attribute>
		</attributes>
		<plan selected="yes">
			<activity type="dummy" x="20000.0" y="81000.0" end_time="21:16:00" >
			</activity>
			<leg mode="pt">
			</leg>
			<activity type="dummy" x="39000.0" y="35000.0" end_time="24:00:00" >
			</activity>
		</plan>

	</person>

<!-- ====================================================================== -->

	<person id="142_5812_528">
		<attributes>
			<attribute name="hasLicense" class="java.lang.String">false</attribute>
		</attributes>
		<plan selected="yes">
			<activity type="dummy" x="100000.0" y="24000.0" end_time="09:53:53" >
			</activity>
			<leg mode="pt">
			</leg>
			<activity type="dummy" x="59000.0" y="89000.0" end_time="24:00:00" >
			</activity>
		</plan>

	</person>

<!-- ====================================================================== -->

	<person id="1432_1900_571">
		<attributes>
			<attribute name="hasLicense" class="java.lang.String">false</attribute>
		</attributes>
		<plan selected="yes">
			<activity type="dummy" x="20000.0" y="85000.0" end_time="21:36:41" >
			</activity>
			<leg mode="pt">
			</leg>
			<activity type="dummy" x="25000.0" y="2000.0" end_time="24:00:00" >
			</activity>
		</plan>

	</person>

<!-- ====================================================================== -->

	<person id="1438_3057_676">
		<attributes>
			<attribute name="hasLicense" class="java.lang.String">false</attribute>
		</attributes>
		<plan selected="yes">
			<activity type="dummy" x="20000.0" y="90000.0" end_time="05:42:34" >
			</activity>
			<leg mode="pt">
			</leg>
			<activity type="dummy" x="35000.0" y="34000.0" end_time="24:00:00" >
			</activity>
		</plan>

	</person>

<!-- ====================================================================== -->

	<person id="1443_2068_998">
		<attributes>
			<attribute name="hasLicense" class="java.lang.String">false</attribute>
		</attributes>
		<plan selected="yes">
			<activity type="dummy" x="20000.0" y="95000.0" end_time="06:47:57" >
			</activity>
			<leg mode="pt">
			</leg>
			<activity type="dummy" x="26000.0" y="53000.0" end_time="24:00:00" >
			</activity>
		</plan>

	</person>

<!-- ====================================================================== -->

	<person id="1447_6397_730">
		<attributes>
			<attribute name="hasLicense" class="java.lang.String">false</attribute>
		</attributes>
		<plan selected="yes">
			<activity type="dummy" x="20000.0" y="99000.0" end_time="10:11:04" >
			</activity>
			<leg mode="pt">
			</leg>
			<activity type="dummy" x="65000.0" y="10000.0" end_time="24:00:00" >
			</activity>
		</plan>

	</person>
