<?xml version="1.0" encoding="utf-8"?>
<!DOCTYPE population SYSTEM "http://www.matsim.org/files/dtd/population_v6.dtd">

<population>



<!-- ====================================================================== -->

	<person id="pt_0_46_86">
		<attributes>
			<attribute name="hasLicense" class="java.lang.String">false</attribute>
		</attributes>
		<plan selected="yes">
			<activity type="dummy" x="0.0" y="0.0" end_time="08:21:38" >
			</activity>
			<leg mode="pt">
			</leg>
			<activity type="dummy" x="2000.0" y="9000.0" end_time="24:00:00" >
			</activity>
		</plan>

	</person>

<!-- ====================================================================== -->

	<person id="pt_100_7_90">
		<attributes>
			<attribute name="hasLicense" class="java.lang.String">false</attribute>
		</attributes>
		<plan selected="yes">
			<activity type="dummy" x="7000.0" y="3000.0" end_time="00:08:28" >
			</activity>
			<leg mode="pt">
			</leg>
			<activity type="dummy" x="9000.0" y="5000.0" end_time="24:00:00" >
			</activity>
		</plan>

	</person>

<!-- ====================================================================== -->

	<person id="pt_104_77_72">
		<attributes>
			<attribute name="hasLicense" class="java.lang.String">false</attribute>
		</attributes>
		<plan selected="yes">
			<activity type="dummy" x="7000.0" y="7000.0" end_time="17:12:59" >
			</activity>
			<leg mode="pt">
			</leg>
			<activity type="dummy" x="0.0" y="6000.0" end_time="24:00:00" >
			</activity>
		</plan>

	</person>

<!-- ====================================================================== -->

	<person id="pt_104_8_88">
		<attributes>
			<attribute name="hasLicense" class="java.lang.String">false</attribute>
		</attributes>
		<plan selected="yes">
			<activity type="dummy" x="7000.0" y="7000.0" end_time="01:25:11" >
			</activity>
			<leg mode="pt">
			</leg>
			<activity type="dummy" x="9000.0" y="6000.0" end_time="24:00:00" >
			</activity>
		</plan>

	</person>

<!-- ====================================================================== -->

	<person id="pt_104_90_53">
		<attributes>
			<attribute name="hasLicense" class="java.lang.String">false</attribute>
		</attributes>
		<plan selected="yes">
			<activity type="dummy" x="7000.0" y="7000.0" end_time="15:20:39" >
			</activity>
			<leg mode="pt">
			</leg>
			<activity type="dummy" x="6000.0" y="5000.0" end_time="24:00:00" >
			</activity>
		</plan>

	</person>

<!-- ====================================================================== -->

	<person id="pt_105_39_62">
		<attributes>
			<attribute name="hasLicense" class="java.lang.String">false</attribute>
		</attributes>
		<plan selected="yes">
			<activity type="dummy" x="7000.0" y="8000.0" end_time="19:25:49" >
			</activity>
			<leg mode="pt">
			</leg>
			<activity type="dummy" x="2000.0" y="3000.0" end_time="24:00:00" >
			</activity>
		</plan>

	</person>

<!-- ====================================================================== -->

	<person id="pt_105_55_38">
		<attributes>
			<attribute name="hasLicense" class="java.lang.String">false</attribute>
		</attributes>
		<plan selected="yes">
			<activity type="dummy" x="7000.0" y="8000.0" end_time="12:20:42" >
			</activity>
			<leg mode="pt">
			</leg>
			<activity type="dummy" x="0.0" y="4000.0" end_time="24:00:00" >
			</activity>
		</plan>

	</person>

<!-- ====================================================================== -->

	<person id="pt_106_69_26">
		<attributes>
			<attribute name="hasLicense" class="java.lang.String">false</attribute>
		</attributes>
		<plan selected="yes">
			<activity type="dummy" x="7000.0" y="9000.0" end_time="03:26:23" >
			</activity>
			<leg mode="pt">
			</leg>
			<activity type="dummy" x="4000.0" y="8000.0" end_time="24:00:00" >
			</activity>
		</plan>

	</person>

<!-- ====================================================================== -->

	<person id="pt_108_11_85">
		<attributes>
			<attribute name="hasLicense" class="java.lang.String">false</attribute>
		</attributes>
		<plan selected="yes">
			<activity type="dummy" x="8000.0" y="0.0" end_time="22:14:58" >
			</activity>
			<leg mode="pt">
			</leg>
			<activity type="dummy" x="9000.0" y="9000.0" end_time="24:00:00" >
			</activity>
		</plan>

	</person>

<!-- ====================================================================== -->

	<person id="pt_110_94_5">
		<attributes>
			<attribute name="hasLicense" class="java.lang.String">false</attribute>
		</attributes>
		<plan selected="yes">
			<activity type="dummy" x="0.0" y="9000.0" end_time="10:48:50" >
			</activity>
			<leg mode="pt">
			</leg>
			<activity type="dummy" x="6000.0" y="9000.0" end_time="24:00:00" >
			</activity>
		</plan>

	</person>

<!-- ====================================================================== -->

	<person id="pt_112_109_57">
		<attributes>
			<attribute name="hasLicense" class="java.lang.String">false</attribute>
		</attributes>
		<plan selected="yes">
			<activity type="dummy" x="8000.0" y="3000.0" end_time="06:38:41" >
			</activity>
			<leg mode="pt">
			</leg>
			<activity type="dummy" x="8000.0" y="1000.0" end_time="24:00:00" >
			</activity>
		</plan>

	</person>

<!-- ====================================================================== -->

	<person id="pt_112_93_45">
		<attributes>
			<attribute name="hasLicense" class="java.lang.String">false</attribute>
		</attributes>
		<plan selected="yes">
			<activity type="dummy" x="8000.0" y="3000.0" end_time="17:47:47" >
			</activity>
			<leg mode="pt">
			</leg>
			<activity type="dummy" x="6000.0" y="8000.0" end_time="24:00:00" >
			</activity>
		</plan>

	</person>

<!-- ====================================================================== -->

	<person id="pt_113_40_94">
		<attributes>
			<attribute name="hasLicense" class="java.lang.String">false</attribute>
		</attributes>
		<plan selected="yes">
			<activity type="dummy" x="8000.0" y="4000.0" end_time="07:34:42" >
			</activity>
			<leg mode="pt">
			</leg>
			<activity type="dummy" x="2000.0" y="4000.0" end_time="24:00:00" >
			</activity>
		</plan>

	</person>

<!-- ====================================================================== -->

	<person id="pt_114_12_16">
		<attributes>
			<attribute name="hasLicense" class="java.lang.String">false</attribute>
		</attributes>
		<plan selected="yes">
			<activity type="dummy" x="8000.0" y="5000.0" end_time="13:22:05" >
			</activity>
			<leg mode="pt">
			</leg>
			<activity type="dummy" x="9000.0" y="10000.0" end_time="24:00:00" >
			</activity>
		</plan>

	</person>

<!-- ====================================================================== -->

	<person id="pt_115_112_59">
		<attributes>
			<attribute name="hasLicense" class="java.lang.String">false</attribute>
		</attributes>
		<plan selected="yes">
			<activity type="dummy" x="8000.0" y="6000.0" end_time="12:44:12" >
			</activity>
			<leg mode="pt">
			</leg>
			<activity type="dummy" x="8000.0" y="3000.0" end_time="24:00:00" >
			</activity>
		</plan>

	</person>

<!-- ====================================================================== -->

	<person id="pt_115_116_41">
		<attributes>
			<attribute name="hasLicense" class="java.lang.String">false</attribute>
		</attributes>
		<plan selected="yes">
			<activity type="dummy" x="8000.0" y="6000.0" end_time="07:21:44" >
			</activity>
			<leg mode="pt">
			</leg>
			<activity type="dummy" x="8000.0" y="7000.0" end_time="24:00:00" >
			</activity>
		</plan>

	</person>

<!-- ====================================================================== -->

	<person id="pt_115_73_73">
		<attributes>
			<attribute name="hasLicense" class="java.lang.String">false</attribute>
		</attributes>
		<plan selected="yes">
			<activity type="dummy" x="8000.0" y="6000.0" end_time="09:51:24" >
			</activity>
			<leg mode="pt">
			</leg>
			<activity type="dummy" x="5000.0" y="1000.0" end_time="24:00:00" >
			</activity>
		</plan>

	</person>

<!-- ====================================================================== -->

	<person id="pt_120_106_81">
		<attributes>
			<attribute name="hasLicense" class="java.lang.String">false</attribute>
		</attributes>
		<plan selected="yes">
			<activity type="dummy" x="9000.0" y="0.0" end_time="03:14:41" >
			</activity>
			<leg mode="pt">
			</leg>
			<activity type="dummy" x="7000.0" y="9000.0" end_time="24:00:00" >
			</activity>
		</plan>

	</person>

<!-- ====================================================================== -->

	<person id="pt_14_95_99">
		<attributes>
			<attribute name="hasLicense" class="java.lang.String">false</attribute>
		</attributes>
		<plan selected="yes">
			<activity type="dummy" x="10000.0" y="0.0" end_time="13:09:42" >
			</activity>
			<leg mode="pt">
			</leg>
			<activity type="dummy" x="6000.0" y="10000.0" end_time="24:00:00" >
			</activity>
		</plan>

	</person>

<!-- ====================================================================== -->

	<person id="pt_15_16_24">
		<attributes>
			<attribute name="hasLicense" class="java.lang.String">false</attribute>
		</attributes>
		<plan selected="yes">
			<activity type="dummy" x="10000.0" y="1000.0" end_time="23:05:35" >
			</activity>
			<leg mode="pt">
			</leg>
			<activity type="dummy" x="10000.0" y="2000.0" end_time="24:00:00" >
			</activity>
		</plan>

	</person>

<!-- ====================================================================== -->

	<person id="pt_16_58_89">
		<attributes>
			<attribute name="hasLicense" class="java.lang.String">false</attribute>
		</attributes>
		<plan selected="yes">
			<activity type="dummy" x="10000.0" y="2000.0" end_time="05:12:58" >
			</activity>
			<leg mode="pt">
			</leg>
			<activity type="dummy" x="3000.0" y="9000.0" end_time="24:00:00" >
			</activity>
		</plan>

	</person>

<!-- ====================================================================== -->

	<person id="pt_17_20_42">
		<attributes>
			<attribute name="hasLicense" class="java.lang.String">false</attribute>
		</attributes>
		<plan selected="yes">
			<activity type="dummy" x="10000.0" y="3000.0" end_time="02:52:39" >
			</activity>
			<leg mode="pt">
			</leg>
			<activity type="dummy" x="10000.0" y="6000.0" end_time="24:00:00" >
			</activity>
		</plan>

	</person>

<!-- ====================================================================== -->

	<person id="pt_17_32_0">
		<attributes>
			<attribute name="hasLicense" class="java.lang.String">false</attribute>
		</attributes>
		<plan selected="yes">
			<activity type="dummy" x="10000.0" y="3000.0" end_time="01:31:18" >
			</activity>
			<leg mode="pt">
			</leg>
			<activity type="dummy" x="1000.0" y="8000.0" end_time="24:00:00" >
			</activity>
		</plan>

	</person>

<!-- ====================================================================== -->

	<person id="pt_17_63_49">
		<attributes>
			<attribute name="hasLicense" class="java.lang.String">false</attribute>
		</attributes>
		<plan selected="yes">
			<activity type="dummy" x="10000.0" y="3000.0" end_time="21:04:42" >
			</activity>
			<leg mode="pt">
			</leg>
			<activity type="dummy" x="4000.0" y="3000.0" end_time="24:00:00" >
			</activity>
		</plan>

	</person>

<!-- ====================================================================== -->

	<person id="pt_18_32_43">
		<attributes>
			<attribute name="hasLicense" class="java.lang.String">false</attribute>
		</attributes>
		<plan selected="yes">
			<activity type="dummy" x="10000.0" y="4000.0" end_time="08:17:52" >
			</activity>
			<leg mode="pt">
			</leg>
			<activity type="dummy" x="1000.0" y="8000.0" end_time="24:00:00" >
			</activity>
		</plan>

	</person>

<!-- ====================================================================== -->

	<person id="pt_18_69_21">
		<attributes>
			<attribute name="hasLicense" class="java.lang.String">false</attribute>
		</attributes>
		<plan selected="yes">
			<activity type="dummy" x="10000.0" y="4000.0" end_time="17:24:45" >
			</activity>
			<leg mode="pt">
			</leg>
			<activity type="dummy" x="4000.0" y="8000.0" end_time="24:00:00" >
			</activity>
		</plan>

	</person>

<!-- ====================================================================== -->

	<person id="pt_19_3_50">
		<attributes>
			<attribute name="hasLicense" class="java.lang.String">false</attribute>
		</attributes>
		<plan selected="yes">
			<activity type="dummy" x="10000.0" y="5000.0" end_time="22:32:20" >
			</activity>
			<leg mode="pt">
			</leg>
			<activity type="dummy" x="9000.0" y="1000.0" end_time="24:00:00" >
			</activity>
		</plan>

	</person>

<!-- ====================================================================== -->

	<person id="pt_19_59_15">
		<attributes>
			<attribute name="hasLicense" class="java.lang.String">false</attribute>
		</attributes>
		<plan selected="yes">
			<activity type="dummy" x="10000.0" y="5000.0" end_time="12:48:49" >
			</activity>
			<leg mode="pt">
			</leg>
			<activity type="dummy" x="3000.0" y="10000.0" end_time="24:00:00" >
			</activity>
		</plan>

	</person>

<!-- ====================================================================== -->

	<person id="pt_20_24_8">
		<attributes>
			<attribute name="hasLicense" class="java.lang.String">false</attribute>
		</attributes>
		<plan selected="yes">
			<activity type="dummy" x="10000.0" y="6000.0" end_time="00:03:13" >
			</activity>
			<leg mode="pt">
			</leg>
			<activity type="dummy" x="1000.0" y="1000.0" end_time="24:00:00" >
			</activity>
		</plan>

	</person>

<!-- ====================================================================== -->

	<person id="pt_20_65_33">
		<attributes>
			<attribute name="hasLicense" class="java.lang.String">false</attribute>
		</attributes>
		<plan selected="yes">
			<activity type="dummy" x="10000.0" y="6000.0" end_time="13:10:15" >
			</activity>
			<leg mode="pt">
			</leg>
			<activity type="dummy" x="4000.0" y="5000.0" end_time="24:00:00" >
			</activity>
		</plan>

	</person>

<!-- ====================================================================== -->

	<person id="pt_20_66_75">
		<attributes>
			<attribute name="hasLicense" class="java.lang.String">false</attribute>
		</attributes>
		<plan selected="yes">
			<activity type="dummy" x="10000.0" y="6000.0" end_time="17:51:12" >
			</activity>
			<leg mode="pt">
			</leg>
			<activity type="dummy" x="0.0" y="5000.0" end_time="24:00:00" >
			</activity>
		</plan>

	</person>

<!-- ====================================================================== -->

	<person id="pt_20_8_79">
		<attributes>
			<attribute name="hasLicense" class="java.lang.String">false</attribute>
		</attributes>
		<plan selected="yes">
			<activity type="dummy" x="10000.0" y="6000.0" end_time="21:16:19" >
			</activity>
			<leg mode="pt">
			</leg>
			<activity type="dummy" x="9000.0" y="6000.0" end_time="24:00:00" >
			</activity>
		</plan>

	</person>

<!-- ====================================================================== -->

	<person id="pt_22_120_35">
		<attributes>
			<attribute name="hasLicense" class="java.lang.String">false</attribute>
		</attributes>
		<plan selected="yes">
			<activity type="dummy" x="10000.0" y="8000.0" end_time="02:23:14" >
			</activity>
			<leg mode="pt">
			</leg>
			<activity type="dummy" x="9000.0" y="0.0" end_time="24:00:00" >
			</activity>
		</plan>

	</person>

<!-- ====================================================================== -->

	<person id="pt_23_48_27">
		<attributes>
			<attribute name="hasLicense" class="java.lang.String">false</attribute>
		</attributes>
		<plan selected="yes">
			<activity type="dummy" x="10000.0" y="9000.0" end_time="20:59:28" >
			</activity>
			<leg mode="pt">
			</leg>
			<activity type="dummy" x="3000.0" y="0.0" end_time="24:00:00" >
			</activity>
		</plan>

	</person>

<!-- ====================================================================== -->

	<person id="pt_24_41_61">
		<attributes>
			<attribute name="hasLicense" class="java.lang.String">false</attribute>
		</attributes>
		<plan selected="yes">
			<activity type="dummy" x="1000.0" y="1000.0" end_time="17:16:16" >
			</activity>
			<leg mode="pt">
			</leg>
			<activity type="dummy" x="2000.0" y="5000.0" end_time="24:00:00" >
			</activity>
		</plan>

	</person>

<!-- ====================================================================== -->

	<person id="pt_24_77_60">
		<attributes>
			<attribute name="hasLicense" class="java.lang.String">false</attribute>
		</attributes>
		<plan selected="yes">
			<activity type="dummy" x="1000.0" y="1000.0" end_time="00:40:42" >
			</activity>
			<leg mode="pt">
			</leg>
			<activity type="dummy" x="0.0" y="6000.0" end_time="24:00:00" >
			</activity>
		</plan>

	</person>

<!-- ====================================================================== -->

	<person id="pt_24_86_67">
		<attributes>
			<attribute name="hasLicense" class="java.lang.String">false</attribute>
		</attributes>
		<plan selected="yes">
			<activity type="dummy" x="1000.0" y="1000.0" end_time="07:59:22" >
			</activity>
			<leg mode="pt">
			</leg>
			<activity type="dummy" x="6000.0" y="2000.0" end_time="24:00:00" >
			</activity>
		</plan>

	</person>

<!-- ====================================================================== -->

	<person id="pt_25_27_9">
		<attributes>
			<attribute name="hasLicense" class="java.lang.String">false</attribute>
		</attributes>
		<plan selected="yes">
			<activity type="dummy" x="10000.0" y="10000.0" end_time="11:43:38" >
			</activity>
			<leg mode="pt">
			</leg>
			<activity type="dummy" x="1000.0" y="3000.0" end_time="24:00:00" >
			</activity>
		</plan>

	</person>

<!-- ====================================================================== -->

	<person id="pt_25_80_58">
		<attributes>
			<attribute name="hasLicense" class="java.lang.String">false</attribute>
		</attributes>
		<plan selected="yes">
			<activity type="dummy" x="10000.0" y="10000.0" end_time="08:58:07" >
			</activity>
			<leg mode="pt">
			</leg>
			<activity type="dummy" x="5000.0" y="7000.0" end_time="24:00:00" >
			</activity>
		</plan>

	</person>

<!-- ====================================================================== -->

	<person id="pt_27_43_77">
		<attributes>
			<attribute name="hasLicense" class="java.lang.String">false</attribute>
		</attributes>
		<plan selected="yes">
			<activity type="dummy" x="1000.0" y="3000.0" end_time="17:16:49" >
			</activity>
			<leg mode="pt">
			</leg>
			<activity type="dummy" x="2000.0" y="7000.0" end_time="24:00:00" >
			</activity>
		</plan>

	</person>

<!-- ====================================================================== -->

	<person id="pt_28_34_34">
		<attributes>
			<attribute name="hasLicense" class="java.lang.String">false</attribute>
		</attributes>
		<plan selected="yes">
			<activity type="dummy" x="1000.0" y="4000.0" end_time="13:41:56" >
			</activity>
			<leg mode="pt">
			</leg>
			<activity type="dummy" x="1000.0" y="9000.0" end_time="24:00:00" >
			</activity>
		</plan>

	</person>

<!-- ====================================================================== -->

	<person id="pt_2_90_76">
		<attributes>
			<attribute name="hasLicense" class="java.lang.String">false</attribute>
		</attributes>
		<plan selected="yes">
			<activity type="dummy" x="0.0" y="10000.0" end_time="11:46:49" >
			</activity>
			<leg mode="pt">
			</leg>
			<activity type="dummy" x="6000.0" y="5000.0" end_time="24:00:00" >
			</activity>
		</plan>

	</person>

<!-- ====================================================================== -->

	<person id="pt_33_47_39">
		<attributes>
			<attribute name="hasLicense" class="java.lang.String">false</attribute>
		</attributes>
		<plan selected="yes">
			<activity type="dummy" x="0.0" y="2000.0" end_time="01:13:47" >
			</activity>
			<leg mode="pt">
			</leg>
			<activity type="dummy" x="2000.0" y="10000.0" end_time="24:00:00" >
			</activity>
		</plan>

	</person>

<!-- ====================================================================== -->

	<person id="pt_34_28_69">
		<attributes>
			<attribute name="hasLicense" class="java.lang.String">false</attribute>
		</attributes>
		<plan selected="yes">
			<activity type="dummy" x="1000.0" y="9000.0" end_time="19:37:22" >
			</activity>
			<leg mode="pt">
			</leg>
			<activity type="dummy" x="1000.0" y="4000.0" end_time="24:00:00" >
			</activity>
		</plan>

	</person>

<!-- ====================================================================== -->

	<person id="pt_34_88_12">
		<attributes>
			<attribute name="hasLicense" class="java.lang.String">false</attribute>
		</attributes>
		<plan selected="yes">
			<activity type="dummy" x="1000.0" y="9000.0" end_time="15:27:51" >
			</activity>
			<leg mode="pt">
			</leg>
			<activity type="dummy" x="0.0" y="7000.0" end_time="24:00:00" >
			</activity>
		</plan>

	</person>

<!-- ====================================================================== -->

	<person id="pt_3_114_91">
		<attributes>
			<attribute name="hasLicense" class="java.lang.String">false</attribute>
		</attributes>
		<plan selected="yes">
			<activity type="dummy" x="9000.0" y="1000.0" end_time="14:55:02" >
			</activity>
			<leg mode="pt">
			</leg>
			<activity type="dummy" x="8000.0" y="5000.0" end_time="24:00:00" >
			</activity>
		</plan>

	</person>

<!-- ====================================================================== -->

	<person id="pt_3_88_68">
		<attributes>
			<attribute name="hasLicense" class="java.lang.String">false</attribute>
		</attributes>
		<plan selected="yes">
			<activity type="dummy" x="9000.0" y="1000.0" end_time="12:08:37" >
			</activity>
			<leg mode="pt">
			</leg>
			<activity type="dummy" x="0.0" y="7000.0" end_time="24:00:00" >
			</activity>
		</plan>

	</person>

<!-- ====================================================================== -->

	<person id="pt_41_18_44">
		<attributes>
			<attribute name="hasLicense" class="java.lang.String">false</attribute>
		</attributes>
		<plan selected="yes">
			<activity type="dummy" x="2000.0" y="5000.0" end_time="09:33:47" >
			</activity>
			<leg mode="pt">
			</leg>
			<activity type="dummy" x="10000.0" y="4000.0" end_time="24:00:00" >
			</activity>
		</plan>

	</person>

<!-- ====================================================================== -->

	<person id="pt_42_64_46">
		<attributes>
			<attribute name="hasLicense" class="java.lang.String">false</attribute>
		</attributes>
		<plan selected="yes">
			<activity type="dummy" x="2000.0" y="6000.0" end_time="12:36:42" >
			</activity>
			<leg mode="pt">
			</leg>
			<activity type="dummy" x="4000.0" y="4000.0" end_time="24:00:00" >
			</activity>
		</plan>

	</person>

<!-- ====================================================================== -->

	<person id="pt_43_8_71">
		<attributes>
			<attribute name="hasLicense" class="java.lang.String">false</attribute>
		</attributes>
		<plan selected="yes">
			<activity type="dummy" x="2000.0" y="7000.0" end_time="11:42:04" >
			</activity>
			<leg mode="pt">
			</leg>
			<activity type="dummy" x="9000.0" y="6000.0" end_time="24:00:00" >
			</activity>
		</plan>

	</person>

<!-- ====================================================================== -->

	<person id="pt_44_7_19">
		<attributes>
			<attribute name="hasLicense" class="java.lang.String">false</attribute>
		</attributes>
		<plan selected="yes">
			<activity type="dummy" x="0.0" y="3000.0" end_time="14:52:48" >
			</activity>
			<leg mode="pt">
			</leg>
			<activity type="dummy" x="9000.0" y="5000.0" end_time="24:00:00" >
			</activity>
		</plan>

	</person>

<!-- ====================================================================== -->

	<person id="pt_45_44_14">
		<attributes>
			<attribute name="hasLicense" class="java.lang.String">false</attribute>
		</attributes>
		<plan selected="yes">
			<activity type="dummy" x="2000.0" y="8000.0" end_time="10:05:44" >
			</activity>
			<leg mode="pt">
			</leg>
			<activity type="dummy" x="0.0" y="3000.0" end_time="24:00:00" >
			</activity>
		</plan>

	</person>

<!-- ====================================================================== -->

	<person id="pt_46_96_55">
		<attributes>
			<attribute name="hasLicense" class="java.lang.String">false</attribute>
		</attributes>
		<plan selected="yes">
			<activity type="dummy" x="2000.0" y="9000.0" end_time="03:02:12" >
			</activity>
			<leg mode="pt">
			</leg>
			<activity type="dummy" x="7000.0" y="0.0" end_time="24:00:00" >
			</activity>
		</plan>

	</person>

<!-- ====================================================================== -->

	<person id="pt_4_106_96">
		<attributes>
			<attribute name="hasLicense" class="java.lang.String">false</attribute>
		</attributes>
		<plan selected="yes">
			<activity type="dummy" x="9000.0" y="2000.0" end_time="14:03:02" >
			</activity>
			<leg mode="pt">
			</leg>
			<activity type="dummy" x="7000.0" y="9000.0" end_time="24:00:00" >
			</activity>
		</plan>

	</person>

<!-- ====================================================================== -->

	<person id="pt_4_93_97">
		<attributes>
			<attribute name="hasLicense" class="java.lang.String">false</attribute>
		</attributes>
		<plan selected="yes">
			<activity type="dummy" x="9000.0" y="2000.0" end_time="23:32:18" >
			</activity>
			<leg mode="pt">
			</leg>
			<activity type="dummy" x="6000.0" y="8000.0" end_time="24:00:00" >
			</activity>
		</plan>

	</person>

<!-- ====================================================================== -->

	<person id="pt_50_56_48">
		<attributes>
			<attribute name="hasLicense" class="java.lang.String">false</attribute>
		</attributes>
		<plan selected="yes">
			<activity type="dummy" x="3000.0" y="2000.0" end_time="16:13:02" >
			</activity>
			<leg mode="pt">
			</leg>
			<activity type="dummy" x="3000.0" y="7000.0" end_time="24:00:00" >
			</activity>
		</plan>

	</person>

<!-- ====================================================================== -->

	<person id="pt_51_32_11">
		<attributes>
			<attribute name="hasLicense" class="java.lang.String">false</attribute>
		</attributes>
		<plan selected="yes">
			<activity type="dummy" x="3000.0" y="3000.0" end_time="08:59:17" >
			</activity>
			<leg mode="pt">
			</leg>
			<activity type="dummy" x="1000.0" y="8000.0" end_time="24:00:00" >
			</activity>
		</plan>

	</person>

<!-- ====================================================================== -->

	<person id="pt_51_73_4">
		<attributes>
			<attribute name="hasLicense" class="java.lang.String">false</attribute>
		</attributes>
		<plan selected="yes">
			<activity type="dummy" x="3000.0" y="3000.0" end_time="14:46:17" >
			</activity>
			<leg mode="pt">
			</leg>
			<activity type="dummy" x="5000.0" y="1000.0" end_time="24:00:00" >
			</activity>
		</plan>

	</person>

<!-- ====================================================================== -->

	<person id="pt_52_85_25">
		<attributes>
			<attribute name="hasLicense" class="java.lang.String">false</attribute>
		</attributes>
		<plan selected="yes">
			<activity type="dummy" x="3000.0" y="4000.0" end_time="23:28:00" >
			</activity>
			<leg mode="pt">
			</leg>
			<activity type="dummy" x="6000.0" y="1000.0" end_time="24:00:00" >
			</activity>
		</plan>

	</person>

<!-- ====================================================================== -->

	<person id="pt_54_1_23">
		<attributes>
			<attribute name="hasLicense" class="java.lang.String">false</attribute>
		</attributes>
		<plan selected="yes">
			<activity type="dummy" x="3000.0" y="6000.0" end_time="05:55:20" >
			</activity>
			<leg mode="pt">
			</leg>
			<activity type="dummy" x="0.0" y="1000.0" end_time="24:00:00" >
			</activity>
		</plan>

	</person>

<!-- ====================================================================== -->

	<person id="pt_55_0_37">
		<attributes>
			<attribute name="hasLicense" class="java.lang.String">false</attribute>
		</attributes>
		<plan selected="yes">
			<activity type="dummy" x="0.0" y="4000.0" end_time="21:32:06" >
			</activity>
			<leg mode="pt">
			</leg>
			<activity type="dummy" x="0.0" y="0.0" end_time="24:00:00" >
			</activity>
		</plan>

	</person>

<!-- ====================================================================== -->

	<person id="pt_56_20_47">
		<attributes>
			<attribute name="hasLicense" class="java.lang.String">false</attribute>
		</attributes>
		<plan selected="yes">
			<activity type="dummy" x="3000.0" y="7000.0" end_time="20:36:54" >
			</activity>
			<leg mode="pt">
			</leg>
			<activity type="dummy" x="10000.0" y="6000.0" end_time="24:00:00" >
			</activity>
		</plan>

	</person>

<!-- ====================================================================== -->

	<person id="pt_56_97_98">
		<attributes>
			<attribute name="hasLicense" class="java.lang.String">false</attribute>
		</attributes>
		<plan selected="yes">
			<activity type="dummy" x="3000.0" y="7000.0" end_time="18:07:27" >
			</activity>
			<leg mode="pt">
			</leg>
			<activity type="dummy" x="7000.0" y="1000.0" end_time="24:00:00" >
			</activity>
		</plan>

	</person>

<!-- ====================================================================== -->

	<person id="pt_58_88_2">
		<attributes>
			<attribute name="hasLicense" class="java.lang.String">false</attribute>
		</attributes>
		<plan selected="yes">
			<activity type="dummy" x="3000.0" y="9000.0" end_time="22:26:54" >
			</activity>
			<leg mode="pt">
			</leg>
			<activity type="dummy" x="0.0" y="7000.0" end_time="24:00:00" >
			</activity>
		</plan>

	</person>

<!-- ====================================================================== -->

	<person id="pt_58_91_65">
		<attributes>
			<attribute name="hasLicense" class="java.lang.String">false</attribute>
		</attributes>
		<plan selected="yes">
			<activity type="dummy" x="3000.0" y="9000.0" end_time="12:10:03" >
			</activity>
			<leg mode="pt">
			</leg>
			<activity type="dummy" x="6000.0" y="6000.0" end_time="24:00:00" >
			</activity>
		</plan>

	</person>
