<?xml version="1.0" encoding="utf-8"?>
<!DOCTYPE population SYSTEM "http://www.matsim.org/files/dtd/population_v6.dtd">

<population>



<!-- ====================================================================== -->

	<person id="2203_8286_55">
		<attributes>
			<attribute name="hasLicense" class="java.lang.String">false</attribute>
		</attributes>
		<plan selected="yes">
			<activity type="dummy" x="2100.0" y="8200.0" end_time="15:09:39" >
			</activity>
			<leg mode="pt">
			</leg>
			<activity type="dummy" x="8200.0" y="400.0" end_time="24:00:00" >
			</activity>
		</plan>

	</person>

<!-- ====================================================================== -->

</population>
