<?xml version="1.0" encoding="utf-8"?>
<!DOCTYPE population SYSTEM "http://www.matsim.org/files/dtd/population_v6.dtd">

<population>



<!-- ====================================================================== -->

	<person id="10006_599_126">
		<attributes>
			<attribute name="hasLicense" class="java.lang.String">false</attribute>
		</attributes>
		<plan selected="yes">
			<activity type="dummy" x="9900.0" y="700.0" end_time="04:16:50" >
			</activity>
			<leg mode="pt">
			</leg>
			<activity type="dummy" x="500.0" y="9400.0" end_time="24:00:00" >
			</activity>
		</plan>

	</person>

<!-- ====================================================================== -->

	<person id="10006_7308_160">
		<attributes>
			<attribute name="hasLicense" class="java.lang.String">false</attribute>
		</attributes>
		<plan selected="yes">
			<activity type="dummy" x="9900.0" y="700.0" end_time="08:50:39" >
			</activity>
			<leg mode="pt">
			</leg>
			<activity type="dummy" x="7200.0" y="3600.0" end_time="24:00:00" >
			</activity>
		</plan>

	</person>

<!-- ====================================================================== -->

	<person id="10011_4883_905">
		<attributes>
			<attribute name="hasLicense" class="java.lang.String">false</attribute>
		</attributes>
		<plan selected="yes">
			<activity type="dummy" x="9900.0" y="1200.0" end_time="09:00:46" >
			</activity>
			<leg mode="pt">
			</leg>
			<activity type="dummy" x="4800.0" y="3500.0" end_time="24:00:00" >
			</activity>
		</plan>

	</person>

<!-- ====================================================================== -->

	<person id="10015_257_308">
		<attributes>
			<attribute name="hasLicense" class="java.lang.String">false</attribute>
		</attributes>
		<plan selected="yes">
			<activity type="dummy" x="9900.0" y="1600.0" end_time="15:23:15" >
			</activity>
			<leg mode="pt">
			</leg>
			<activity type="dummy" x="200.0" y="5500.0" end_time="24:00:00" >
			</activity>
		</plan>

	</person>

<!-- ====================================================================== -->

	<person id="10026_743_624">
		<attributes>
			<attribute name="hasLicense" class="java.lang.String">false</attribute>
		</attributes>
		<plan selected="yes">
			<activity type="dummy" x="9900.0" y="2700.0" end_time="08:55:44" >
			</activity>
			<leg mode="pt">
			</leg>
			<activity type="dummy" x="700.0" y="3600.0" end_time="24:00:00" >
			</activity>
		</plan>

	</person>

<!-- ====================================================================== -->

	<person id="10029_4493_268">
		<attributes>
			<attribute name="hasLicense" class="java.lang.String">false</attribute>
		</attributes>
		<plan selected="yes">
			<activity type="dummy" x="9900.0" y="3000.0" end_time="15:02:28" >
			</activity>
			<leg mode="pt">
			</leg>
			<activity type="dummy" x="4400.0" y="4900.0" end_time="24:00:00" >
			</activity>
		</plan>

	</person>

<!-- ====================================================================== -->

	<person id="10030_2184_330">
		<attributes>
			<attribute name="hasLicense" class="java.lang.String">false</attribute>
		</attributes>
		<plan selected="yes">
			<activity type="dummy" x="9900.0" y="3100.0" end_time="11:30:41" >
			</activity>
			<leg mode="pt">
			</leg>
			<activity type="dummy" x="2100.0" y="6300.0" end_time="24:00:00" >
			</activity>
		</plan>

	</person>

<!-- ====================================================================== -->

	<person id="10058_8115_720">
		<attributes>
			<attribute name="hasLicense" class="java.lang.String">false</attribute>
		</attributes>
		<plan selected="yes">
			<activity type="dummy" x="9900.0" y="5900.0" end_time="00:31:06" >
			</activity>
			<leg mode="pt">
			</leg>
			<activity type="dummy" x="8000.0" y="3500.0" end_time="24:00:00" >
			</activity>
		</plan>

	</person>

<!-- ====================================================================== -->

	<person id="10073_212_547">
		<attributes>
			<attribute name="hasLicense" class="java.lang.String">false</attribute>
		</attributes>
		<plan selected="yes">
			<activity type="dummy" x="9900.0" y="7400.0" end_time="01:34:52" >
			</activity>
			<leg mode="pt">
			</leg>
			<activity type="dummy" x="200.0" y="1000.0" end_time="24:00:00" >
			</activity>
		</plan>

	</person>

<!-- ====================================================================== -->

	<person id="10077_5065_105">
		<attributes>
			<attribute name="hasLicense" class="java.lang.String">false</attribute>
		</attributes>
		<plan selected="yes">
			<activity type="dummy" x="9900.0" y="7800.0" end_time="19:00:45" >
			</activity>
			<leg mode="pt">
			</leg>
			<activity type="dummy" x="5000.0" y="1500.0" end_time="24:00:00" >
			</activity>
		</plan>

	</person>

<!-- ====================================================================== -->

	<person id="10095_531_27">
		<attributes>
			<attribute name="hasLicense" class="java.lang.String">false</attribute>
		</attributes>
		<plan selected="yes">
			<activity type="dummy" x="9900.0" y="9600.0" end_time="09:24:24" >
			</activity>
			<leg mode="pt">
			</leg>
			<activity type="dummy" x="500.0" y="2600.0" end_time="24:00:00" >
			</activity>
		</plan>

	</person>

<!-- ====================================================================== -->

	<person id="10096_6686_377">
		<attributes>
			<attribute name="hasLicense" class="java.lang.String">false</attribute>
		</attributes>
		<plan selected="yes">
			<activity type="dummy" x="9900.0" y="9700.0" end_time="07:57:57" >
			</activity>
			<leg mode="pt">
			</leg>
			<activity type="dummy" x="6600.0" y="2000.0" end_time="24:00:00" >
			</activity>
		</plan>

	</person>

<!-- ====================================================================== -->

	<person id="10144_1971_939">
		<attributes>
			<attribute name="hasLicense" class="java.lang.String">false</attribute>
		</attributes>
		<plan selected="yes">
			<activity type="dummy" x="10000.0" y="4400.0" end_time="22:26:39" >
			</activity>
			<leg mode="pt">
			</leg>
			<activity type="dummy" x="1900.0" y="5200.0" end_time="24:00:00" >
			</activity>
		</plan>

	</person>

<!-- ====================================================================== -->

	<person id="10146_8745_844">
		<attributes>
			<attribute name="hasLicense" class="java.lang.String">false</attribute>
		</attributes>
		<plan selected="yes">
			<activity type="dummy" x="10000.0" y="4600.0" end_time="11:31:33" >
			</activity>
			<leg mode="pt">
			</leg>
			<activity type="dummy" x="8600.0" y="5900.0" end_time="24:00:00" >
			</activity>
		</plan>

	</person>

<!-- ====================================================================== -->

	<person id="10166_6766_40">
		<attributes>
			<attribute name="hasLicense" class="java.lang.String">false</attribute>
		</attributes>
		<plan selected="yes">
			<activity type="dummy" x="10000.0" y="6600.0" end_time="23:38:32" >
			</activity>
			<leg mode="pt">
			</leg>
			<activity type="dummy" x="6600.0" y="10000.0" end_time="24:00:00" >
			</activity>
		</plan>

	</person>

<!-- ====================================================================== -->

	<person id="10175_6155_714">
		<attributes>
			<attribute name="hasLicense" class="java.lang.String">false</attribute>
		</attributes>
		<plan selected="yes">
			<activity type="dummy" x="10000.0" y="7500.0" end_time="18:35:10" >
			</activity>
			<leg mode="pt">
			</leg>
			<activity type="dummy" x="6000.0" y="9500.0" end_time="24:00:00" >
			</activity>
		</plan>

	</person>

<!-- ====================================================================== -->

	<person id="10176_3117_877">
		<attributes>
			<attribute name="hasLicense" class="java.lang.String">false</attribute>
		</attributes>
		<plan selected="yes">
			<activity type="dummy" x="10000.0" y="7600.0" end_time="18:42:57" >
			</activity>
			<leg mode="pt">
			</leg>
			<activity type="dummy" x="3000.0" y="8700.0" end_time="24:00:00" >
			</activity>
		</plan>

	</person>

<!-- ====================================================================== -->

	<person id="10176_5116_197">
		<attributes>
			<attribute name="hasLicense" class="java.lang.String">false</attribute>
		</attributes>
		<plan selected="yes">
			<activity type="dummy" x="10000.0" y="7600.0" end_time="17:07:17" >
			</activity>
			<leg mode="pt">
			</leg>
			<activity type="dummy" x="5000.0" y="6600.0" end_time="24:00:00" >
			</activity>
		</plan>

	</person>

<!-- ====================================================================== -->

	<person id="10200_7762_133">
		<attributes>
			<attribute name="hasLicense" class="java.lang.String">false</attribute>
		</attributes>
		<plan selected="yes">
			<activity type="dummy" x="10000.0" y="10000.0" end_time="09:06:34" >
			</activity>
			<leg mode="pt">
			</leg>
			<activity type="dummy" x="7600.0" y="8600.0" end_time="24:00:00" >
			</activity>
		</plan>

	</person>

<!-- ====================================================================== -->

	<person id="1022_1528_454">
		<attributes>
			<attribute name="hasLicense" class="java.lang.String">false</attribute>
		</attributes>
		<plan selected="yes">
			<activity type="dummy" x="1000.0" y="1200.0" end_time="00:31:26" >
			</activity>
			<leg mode="pt">
			</leg>
			<activity type="dummy" x="1500.0" y="1300.0" end_time="24:00:00" >
			</activity>
		</plan>

	</person>

<!-- ====================================================================== -->

	<person id="1054_9077_527">
		<attributes>
			<attribute name="hasLicense" class="java.lang.String">false</attribute>
		</attributes>
		<plan selected="yes">
			<activity type="dummy" x="1000.0" y="4400.0" end_time="04:43:32" >
			</activity>
			<leg mode="pt">
			</leg>
			<activity type="dummy" x="8900.0" y="8800.0" end_time="24:00:00" >
			</activity>
		</plan>

	</person>

<!-- ====================================================================== -->

	<person id="1056_7275_225">
		<attributes>
			<attribute name="hasLicense" class="java.lang.String">false</attribute>
		</attributes>
		<plan selected="yes">
			<activity type="dummy" x="1000.0" y="4600.0" end_time="11:35:05" >
			</activity>
			<leg mode="pt">
			</leg>
			<activity type="dummy" x="7200.0" y="300.0" end_time="24:00:00" >
			</activity>
		</plan>

	</person>

<!-- ====================================================================== -->

	<person id="1061_1023_13">
		<attributes>
			<attribute name="hasLicense" class="java.lang.String">false</attribute>
		</attributes>
		<plan selected="yes">
			<activity type="dummy" x="1000.0" y="5100.0" end_time="10:52:22" >
			</activity>
			<leg mode="pt">
			</leg>
			<activity type="dummy" x="1000.0" y="1300.0" end_time="24:00:00" >
			</activity>
		</plan>

	</person>

<!-- ====================================================================== -->

	<person id="1072_4809_252">
		<attributes>
			<attribute name="hasLicense" class="java.lang.String">false</attribute>
		</attributes>
		<plan selected="yes">
			<activity type="dummy" x="1000.0" y="6200.0" end_time="10:24:16" >
			</activity>
			<leg mode="pt">
			</leg>
			<activity type="dummy" x="4700.0" y="6200.0" end_time="24:00:00" >
			</activity>
		</plan>

	</person>

<!-- ====================================================================== -->

	<person id="1091_218_302">
		<attributes>
			<attribute name="hasLicense" class="java.lang.String">false</attribute>
		</attributes>
		<plan selected="yes">
			<activity type="dummy" x="1000.0" y="8100.0" end_time="09:04:03" >
			</activity>
			<leg mode="pt">
			</leg>
			<activity type="dummy" x="200.0" y="1600.0" end_time="24:00:00" >
			</activity>
		</plan>

	</person>

<!-- ====================================================================== -->

	<person id="1103_9407_852">
		<attributes>
			<attribute name="hasLicense" class="java.lang.String">false</attribute>
		</attributes>
		<plan selected="yes">
			<activity type="dummy" x="1000.0" y="9300.0" end_time="08:28:17" >
			</activity>
			<leg mode="pt">
			</leg>
			<activity type="dummy" x="9300.0" y="1400.0" end_time="24:00:00" >
			</activity>
		</plan>

	</person>

<!-- ====================================================================== -->

	<person id="1105_117_480">
		<attributes>
			<attribute name="hasLicense" class="java.lang.String">false</attribute>
		</attributes>
		<plan selected="yes">
			<activity type="dummy" x="1000.0" y="9500.0" end_time="02:15:53" >
			</activity>
			<leg mode="pt">
			</leg>
			<activity type="dummy" x="100.0" y="1600.0" end_time="24:00:00" >
			</activity>
		</plan>

	</person>

<!-- ====================================================================== -->

	<person id="1105_7692_421">
		<attributes>
			<attribute name="hasLicense" class="java.lang.String">false</attribute>
		</attributes>
		<plan selected="yes">
			<activity type="dummy" x="1000.0" y="9500.0" end_time="02:50:11" >
			</activity>
			<leg mode="pt">
			</leg>
			<activity type="dummy" x="7600.0" y="1600.0" end_time="24:00:00" >
			</activity>
		</plan>

	</person>

<!-- ====================================================================== -->

	<person id="1106_6703_986">
		<attributes>
			<attribute name="hasLicense" class="java.lang.String">false</attribute>
		</attributes>
		<plan selected="yes">
			<activity type="dummy" x="1000.0" y="9600.0" end_time="06:11:48" >
			</activity>
			<leg mode="pt">
			</leg>
			<activity type="dummy" x="6600.0" y="3700.0" end_time="24:00:00" >
			</activity>
		</plan>

	</person>

<!-- ====================================================================== -->

	<person id="1107_4840_883">
		<attributes>
			<attribute name="hasLicense" class="java.lang.String">false</attribute>
		</attributes>
		<plan selected="yes">
			<activity type="dummy" x="1000.0" y="9700.0" end_time="20:39:35" >
			</activity>
			<leg mode="pt">
			</leg>
			<activity type="dummy" x="4700.0" y="9300.0" end_time="24:00:00" >
			</activity>
		</plan>

	</person>

<!-- ====================================================================== -->

	<person id="111_9905_301">
		<attributes>
			<attribute name="hasLicense" class="java.lang.String">false</attribute>
		</attributes>
		<plan selected="yes">
			<activity type="dummy" x="100.0" y="1000.0" end_time="16:19:10" >
			</activity>
			<leg mode="pt">
			</leg>
			<activity type="dummy" x="9800.0" y="700.0" end_time="24:00:00" >
			</activity>
		</plan>

	</person>

<!-- ====================================================================== -->

	<person id="1139_1625_350">
		<attributes>
			<attribute name="hasLicense" class="java.lang.String">false</attribute>
		</attributes>
		<plan selected="yes">
			<activity type="dummy" x="1100.0" y="2800.0" end_time="23:03:26" >
			</activity>
			<leg mode="pt">
			</leg>
			<activity type="dummy" x="1600.0" y="900.0" end_time="24:00:00" >
			</activity>
		</plan>

	</person>

<!-- ====================================================================== -->

	<person id="113_5857_796">
		<attributes>
			<attribute name="hasLicense" class="java.lang.String">false</attribute>
		</attributes>
		<plan selected="yes">
			<activity type="dummy" x="100.0" y="1200.0" end_time="06:03:45" >
			</activity>
			<leg mode="pt">
			</leg>
			<activity type="dummy" x="5700.0" y="10000.0" end_time="24:00:00" >
			</activity>
		</plan>

	</person>

<!-- ====================================================================== -->

	<person id="1169_155_423">
		<attributes>
			<attribute name="hasLicense" class="java.lang.String">false</attribute>
		</attributes>
		<plan selected="yes">
			<activity type="dummy" x="1100.0" y="5800.0" end_time="13:43:00" >
			</activity>
			<leg mode="pt">
			</leg>
			<activity type="dummy" x="100.0" y="5400.0" end_time="24:00:00" >
			</activity>
		</plan>

	</person>

<!-- ====================================================================== -->

	<person id="1173_3917_661">
		<attributes>
			<attribute name="hasLicense" class="java.lang.String">false</attribute>
		</attributes>
		<plan selected="yes">
			<activity type="dummy" x="1100.0" y="6200.0" end_time="20:38:38" >
			</activity>
			<leg mode="pt">
			</leg>
			<activity type="dummy" x="3800.0" y="7900.0" end_time="24:00:00" >
			</activity>
		</plan>

	</person>

<!-- ====================================================================== -->

	<person id="1173_7038_690">
		<attributes>
			<attribute name="hasLicense" class="java.lang.String">false</attribute>
		</attributes>
		<plan selected="yes">
			<activity type="dummy" x="1100.0" y="6200.0" end_time="05:02:31" >
			</activity>
			<leg mode="pt">
			</leg>
			<activity type="dummy" x="6900.0" y="6900.0" end_time="24:00:00" >
			</activity>
		</plan>

	</person>

<!-- ====================================================================== -->

	<person id="1176_3792_638">
		<attributes>
			<attribute name="hasLicense" class="java.lang.String">false</attribute>
		</attributes>
		<plan selected="yes">
			<activity type="dummy" x="1100.0" y="6500.0" end_time="09:58:47" >
			</activity>
			<leg mode="pt">
			</leg>
			<activity type="dummy" x="3700.0" y="5500.0" end_time="24:00:00" >
			</activity>
		</plan>

	</person>

<!-- ====================================================================== -->

	<person id="1178_3020_274">
		<attributes>
			<attribute name="hasLicense" class="java.lang.String">false</attribute>
		</attributes>
		<plan selected="yes">
			<activity type="dummy" x="1100.0" y="6700.0" end_time="10:44:12" >
			</activity>
			<leg mode="pt">
			</leg>
			<activity type="dummy" x="2900.0" y="9100.0" end_time="24:00:00" >
			</activity>
		</plan>

	</person>

<!-- ====================================================================== -->

	<person id="118_2943_865">
		<attributes>
			<attribute name="hasLicense" class="java.lang.String">false</attribute>
		</attributes>
		<plan selected="yes">
			<activity type="dummy" x="100.0" y="1700.0" end_time="22:39:03" >
			</activity>
			<leg mode="pt">
			</leg>
			<activity type="dummy" x="2900.0" y="1400.0" end_time="24:00:00" >
			</activity>
		</plan>

	</person>

<!-- ====================================================================== -->

	<person id="1190_44_446">
		<attributes>
			<attribute name="hasLicense" class="java.lang.String">false</attribute>
		</attributes>
		<plan selected="yes">
			<activity type="dummy" x="1100.0" y="7900.0" end_time="18:10:47" >
			</activity>
			<leg mode="pt">
			</leg>
			<activity type="dummy" x="0.0" y="4400.0" end_time="24:00:00" >
			</activity>
		</plan>

	</person>

<!-- ====================================================================== -->

	<person id="1194_8158_755">
		<attributes>
			<attribute name="hasLicense" class="java.lang.String">false</attribute>
		</attributes>
		<plan selected="yes">
			<activity type="dummy" x="1100.0" y="8300.0" end_time="01:29:36" >
			</activity>
			<leg mode="pt">
			</leg>
			<activity type="dummy" x="8000.0" y="7800.0" end_time="24:00:00" >
			</activity>
		</plan>

	</person>

<!-- ====================================================================== -->

	<person id="1199_1271_767">
		<attributes>
			<attribute name="hasLicense" class="java.lang.String">false</attribute>
		</attributes>
		<plan selected="yes">
			<activity type="dummy" x="1100.0" y="8800.0" end_time="16:59:46" >
			</activity>
			<leg mode="pt">
			</leg>
			<activity type="dummy" x="1200.0" y="5900.0" end_time="24:00:00" >
			</activity>
		</plan>

	</person>

<!-- ====================================================================== -->

	<person id="1270_1935_397">
		<attributes>
			<attribute name="hasLicense" class="java.lang.String">false</attribute>
		</attributes>
		<plan selected="yes">
			<activity type="dummy" x="1200.0" y="5800.0" end_time="23:46:45" >
			</activity>
			<leg mode="pt">
			</leg>
			<activity type="dummy" x="1900.0" y="1600.0" end_time="24:00:00" >
			</activity>
		</plan>

	</person>

<!-- ====================================================================== -->

	<person id="1275_254_669">
		<attributes>
			<attribute name="hasLicense" class="java.lang.String">false</attribute>
		</attributes>
		<plan selected="yes">
			<activity type="dummy" x="1200.0" y="6300.0" end_time="01:09:41" >
			</activity>
			<leg mode="pt">
			</leg>
			<activity type="dummy" x="200.0" y="5200.0" end_time="24:00:00" >
			</activity>
		</plan>

	</person>

<!-- ====================================================================== -->

	<person id="1275_7738_828">
		<attributes>
			<attribute name="hasLicense" class="java.lang.String">false</attribute>
		</attributes>
		<plan selected="yes">
			<activity type="dummy" x="1200.0" y="6300.0" end_time="12:52:36" >
			</activity>
			<leg mode="pt">
			</leg>
			<activity type="dummy" x="7600.0" y="6200.0" end_time="24:00:00" >
			</activity>
		</plan>

	</person>

<!-- ====================================================================== -->

	<person id="1299_9699_963">
		<attributes>
			<attribute name="hasLicense" class="java.lang.String">false</attribute>
		</attributes>
		<plan selected="yes">
			<activity type="dummy" x="1200.0" y="8700.0" end_time="09:15:42" >
			</activity>
			<leg mode="pt">
			</leg>
			<activity type="dummy" x="9600.0" y="300.0" end_time="24:00:00" >
			</activity>
		</plan>

	</person>

<!-- ====================================================================== -->

	<person id="130_8669_683">
		<attributes>
			<attribute name="hasLicense" class="java.lang.String">false</attribute>
		</attributes>
		<plan selected="yes">
			<activity type="dummy" x="100.0" y="2900.0" end_time="22:30:31" >
			</activity>
			<leg mode="pt">
			</leg>
			<activity type="dummy" x="8500.0" y="8400.0" end_time="24:00:00" >
			</activity>
		</plan>

	</person>

<!-- ====================================================================== -->

	<person id="1314_3652_167">
		<attributes>
			<attribute name="hasLicense" class="java.lang.String">false</attribute>
		</attributes>
		<plan selected="yes">
			<activity type="dummy" x="1300.0" y="100.0" end_time="23:23:09" >
			</activity>
			<leg mode="pt">
			</leg>
			<activity type="dummy" x="3600.0" y="1600.0" end_time="24:00:00" >
			</activity>
		</plan>

	</person>

<!-- ====================================================================== -->

	<person id="1318_5367_646">
		<attributes>
			<attribute name="hasLicense" class="java.lang.String">false</attribute>
		</attributes>
		<plan selected="yes">
			<activity type="dummy" x="1300.0" y="500.0" end_time="00:29:49" >
			</activity>
			<leg mode="pt">
			</leg>
			<activity type="dummy" x="5300.0" y="1400.0" end_time="24:00:00" >
			</activity>
		</plan>

	</person>

<!-- ====================================================================== -->

	<person id="1318_7086_700">
		<attributes>
			<attribute name="hasLicense" class="java.lang.String">false</attribute>
		</attributes>
		<plan selected="yes">
			<activity type="dummy" x="1300.0" y="500.0" end_time="09:30:58" >
			</activity>
			<leg mode="pt">
			</leg>
			<activity type="dummy" x="7000.0" y="1600.0" end_time="24:00:00" >
			</activity>
		</plan>

	</person>

<!-- ====================================================================== -->

	<person id="1331_7312_195">
		<attributes>
			<attribute name="hasLicense" class="java.lang.String">false</attribute>
		</attributes>
		<plan selected="yes">
			<activity type="dummy" x="1300.0" y="1800.0" end_time="23:06:50" >
			</activity>
			<leg mode="pt">
			</leg>
			<activity type="dummy" x="7200.0" y="4000.0" end_time="24:00:00" >
			</activity>
		</plan>

	</person>

<!-- ====================================================================== -->

	<person id="1345_6597_127">
		<attributes>
			<attribute name="hasLicense" class="java.lang.String">false</attribute>
		</attributes>
		<plan selected="yes">
			<activity type="dummy" x="1300.0" y="3200.0" end_time="13:47:31" >
			</activity>
			<leg mode="pt">
			</leg>
			<activity type="dummy" x="6500.0" y="3200.0" end_time="24:00:00" >
			</activity>
		</plan>

	</person>

<!-- ====================================================================== -->

	<person id="1346_2101_821">
		<attributes>
			<attribute name="hasLicense" class="java.lang.String">false</attribute>
		</attributes>
		<plan selected="yes">
			<activity type="dummy" x="1300.0" y="3300.0" end_time="00:45:02" >
			</activity>
			<leg mode="pt">
			</leg>
			<activity type="dummy" x="2000.0" y="8100.0" end_time="24:00:00" >
			</activity>
		</plan>

	</person>

<!-- ====================================================================== -->

	<person id="1383_6412_492">
		<attributes>
			<attribute name="hasLicense" class="java.lang.String">false</attribute>
		</attributes>
		<plan selected="yes">
			<activity type="dummy" x="1300.0" y="7000.0" end_time="03:04:45" >
			</activity>
			<leg mode="pt">
			</leg>
			<activity type="dummy" x="6300.0" y="4900.0" end_time="24:00:00" >
			</activity>
		</plan>

	</person>

<!-- ====================================================================== -->

	<person id="1386_8121_483">
		<attributes>
			<attribute name="hasLicense" class="java.lang.String">false</attribute>
		</attributes>
		<plan selected="yes">
			<activity type="dummy" x="1300.0" y="7300.0" end_time="23:52:31" >
			</activity>
			<leg mode="pt">
			</leg>
			<activity type="dummy" x="8000.0" y="4100.0" end_time="24:00:00" >
			</activity>
		</plan>

	</person>

<!-- ====================================================================== -->

	<person id="1398_8820_681">
		<attributes>
			<attribute name="hasLicense" class="java.lang.String">false</attribute>
		</attributes>
		<plan selected="yes">
			<activity type="dummy" x="1300.0" y="8500.0" end_time="01:20:28" >
			</activity>
			<leg mode="pt">
			</leg>
			<activity type="dummy" x="8700.0" y="3300.0" end_time="24:00:00" >
			</activity>
		</plan>

	</person>

<!-- ====================================================================== -->

	<person id="1408_3760_744">
		<attributes>
			<attribute name="hasLicense" class="java.lang.String">false</attribute>
		</attributes>
		<plan selected="yes">
			<activity type="dummy" x="1300.0" y="9500.0" end_time="21:28:29" >
			</activity>
			<leg mode="pt">
			</leg>
			<activity type="dummy" x="3700.0" y="2300.0" end_time="24:00:00" >
			</activity>
		</plan>

	</person>

<!-- ====================================================================== -->

	<person id="1417_256_552">
		<attributes>
			<attribute name="hasLicense" class="java.lang.String">false</attribute>
		</attributes>
		<plan selected="yes">
			<activity type="dummy" x="1400.0" y="300.0" end_time="01:10:06" >
			</activity>
			<leg mode="pt">
			</leg>
			<activity type="dummy" x="200.0" y="5400.0" end_time="24:00:00" >
			</activity>
		</plan>

	</person>

<!-- ====================================================================== -->

	<person id="1428_3507_352">
		<attributes>
			<attribute name="hasLicense" class="java.lang.String">false</attribute>
		</attributes>
		<plan selected="yes">
			<activity type="dummy" x="1400.0" y="1400.0" end_time="22:36:15" >
			</activity>
			<leg mode="pt">
			</leg>
			<activity type="dummy" x="3400.0" y="7300.0" end_time="24:00:00" >
			</activity>
		</plan>

	</person>

<!-- ====================================================================== -->

	<person id="142_5812_528">
		<attributes>
			<attribute name="hasLicense" class="java.lang.String">false</attribute>
		</attributes>
		<plan selected="yes">
			<activity type="dummy" x="100.0" y="4100.0" end_time="14:42:08" >
			</activity>
			<leg mode="pt">
			</leg>
			<activity type="dummy" x="5700.0" y="5500.0" end_time="24:00:00" >
			</activity>
		</plan>

	</person>

<!-- ====================================================================== -->

	<person id="1432_1900_571">
		<attributes>
			<attribute name="hasLicense" class="java.lang.String">false</attribute>
		</attributes>
		<plan selected="yes">
			<activity type="dummy" x="1400.0" y="1800.0" end_time="06:58:16" >
			</activity>
			<leg mode="pt">
			</leg>
			<activity type="dummy" x="1800.0" y="8200.0" end_time="24:00:00" >
			</activity>
		</plan>

	</person>

<!-- ====================================================================== -->

	<person id="1438_3057_676">
		<attributes>
			<attribute name="hasLicense" class="java.lang.String">false</attribute>
		</attributes>
		<plan selected="yes">
			<activity type="dummy" x="1400.0" y="2400.0" end_time="16:41:15" >
			</activity>
			<leg mode="pt">
			</leg>
			<activity type="dummy" x="3000.0" y="2700.0" end_time="24:00:00" >
			</activity>
		</plan>

	</person>

<!-- ====================================================================== -->

	<person id="1443_2068_998">
		<attributes>
			<attribute name="hasLicense" class="java.lang.String">false</attribute>
		</attributes>
		<plan selected="yes">
			<activity type="dummy" x="1400.0" y="2900.0" end_time="03:09:09" >
			</activity>
			<leg mode="pt">
			</leg>
			<activity type="dummy" x="2000.0" y="4800.0" end_time="24:00:00" >
			</activity>
		</plan>

	</person>

<!-- ====================================================================== -->

	<person id="1447_6397_730">
		<attributes>
			<attribute name="hasLicense" class="java.lang.String">false</attribute>
		</attributes>
		<plan selected="yes">
			<activity type="dummy" x="1400.0" y="3300.0" end_time="10:49:10" >
			</activity>
			<leg mode="pt">
			</leg>
			<activity type="dummy" x="6300.0" y="3400.0" end_time="24:00:00" >
			</activity>
		</plan>

	</person>

<!-- ====================================================================== -->

	<person id="1469_3295_616">
		<attributes>
			<attribute name="hasLicense" class="java.lang.String">false</attribute>
		</attributes>
		<plan selected="yes">
			<activity type="dummy" x="1400.0" y="5500.0" end_time="01:42:46" >