<?xml version="1.0" encoding="utf-8"?>
<!DOCTYPE population SYSTEM "http://www.matsim.org/files/dtd/population_v6.dtd">

<population>



<!-- ====================================================================== -->

	<person id="0">
		<attributes>
			<attribute name="hasLicense" class="java.lang.String">false</attribute>
		</attributes>
		<plan selected="yes">
			<activity type="dummy" x="7100.0" y="6700.0" end_time="14:39:39" >
			</activity>
			<leg mode="pt">
			</leg>
			<activity type="dummy" x="8600.0" y="1900.0" end_time="24:00:00" >
			</activity>
		</plan>

	</person>

<!-- ====================================================================== -->

	<person id="1">
		<attributes>
			<attribute name="hasLicense" class="java.lang.String">false</attribute>
		</attributes>
		<plan selected="yes">
			<activity type="dummy" x="6500.0" y="7700.0" end_time="17:35:00" >
			</activity>
			<leg mode="pt">
			</leg>
			<activity type="dummy" x="2000.0" y="8400.0" end_time="24:00:00" >
			</activity>
		</plan>

	</person>

<!-- ====================================================================== -->

	<person id="10">
		<attributes>
			<attribute name="hasLicense" class="java.lang.String">false</attribute>
		</attributes>
		<plan selected="yes">
			<activity type="dummy" x="6900.0" y="8300.0" end_time="00:19:14" >
			</activity>
			<leg mode="pt">
			</leg>
			<activity type="dummy" x="1600.0" y="5100.0" end_time="24:00:00" >
			</activity>
		</plan>

	</person>

<!-- ====================================================================== -->

	<person id="100">
		<attributes>
			<attribute name="hasLicense" class="java.lang.String">false</attribute>
		</attributes>
		<plan selected="yes">
			<activity type="dummy" x="8800.0" y="1500.0" end_time="19:39:15" >
			</activity>
			<leg mode="pt">
			</leg>
			<activity type="dummy" x="1400.0" y="2900.0" end_time="24:00:00" >
			</activity>
		</plan>

	</person>

<!-- ====================================================================== -->

	<person id="101">
		<attributes>
			<attribute name="hasLicense" class="java.lang.String">false</attribute>
		</attributes>
		<plan selected="yes">
			<activity type="dummy" x="700.0" y="3200.0" end_time="20:33:19" >
			</activity>
			<leg mode="pt">
			</leg>
			<activity type="dummy" x="9500.0" y="1600.0" end_time="24:00:00" >
			</activity>
		</plan>

	</person>

<!-- ====================================================================== -->

	<person id="102">
		<attributes>
			<attribute name="hasLicense" class="java.lang.String">false</attribute>
		</attributes>
		<plan selected="yes">
			<activity type="dummy" x="500.0" y="5900.0" end_time="03:16:49" >
			</activity>
			<leg mode="pt">
			</leg>
			<activity type="dummy" x="0.0" y="3200.0" end_time="24:00:00" >
			</activity>
		</plan>

	</person>

<!-- ====================================================================== -->

	<person id="103">
		<attributes>
			<attribute name="hasLicense" class="java.lang.String">false</attribute>
		</attributes>
		<plan selected="yes">
			<activity type="dummy" x="300.0" y="8600.0" end_time="16:26:27" >
			</activity>
			<leg mode="pt">
			</leg>
			<activity type="dummy" x="3000.0" y="8100.0" end_time="24:00:00" >
			</activity>
		</plan>

	</person>

<!-- ====================================================================== -->

	<person id="104">
		<attributes>
			<attribute name="hasLicense" class="java.lang.String">false</attribute>
		</attributes>
		<plan selected="yes">
			<activity type="dummy" x="1700.0" y="6500.0" end_time="23:18:27" >
			</activity>
			<leg mode="pt">
			</leg>
			<activity type="dummy" x="400.0" y="2300.0" end_time="24:00:00" >
			</activity>
		</plan>

	</person>

<!-- ====================================================================== -->

	<person id="105">
		<attributes>
			<attribute name="hasLicense" class="java.lang.String">false</attribute>
		</attributes>
		<plan selected="yes">
			<activity type="dummy" x="9900.0" y="7900.0" end_time="23:22:30" >
			</activity>
			<leg mode="pt">
			</leg>
			<activity type="dummy" x="5400.0" y="2100.0" end_time="24:00:00" >
			</activity>
		</plan>

	</person>

<!-- ====================================================================== -->

	<person id="106">
		<attributes>
			<attribute name="hasLicense" class="java.lang.String">false</attribute>
		</attributes>
		<plan selected="yes">
			<activity type="dummy" x="1300.0" y="5900.0" end_time="03:37:26" >
			</activity>
			<leg mode="pt">
			</leg>
			<activity type="dummy" x="2200.0" y="7400.0" end_time="24:00:00" >
			</activity>
		</plan>

	</person>

<!-- ====================================================================== -->

	<person id="107">
		<attributes>
			<attribute name="hasLicense" class="java.lang.String">false</attribute>
		</attributes>
		<plan selected="yes">
			<activity type="dummy" x="700.0" y="5500.0" end_time="15:35:18" >
			</activity>
			<leg mode="pt">
			</leg>
			<activity type="dummy" x="5100.0" y="3200.0" end_time="24:00:00" >
			</activity>
		</plan>

	</person>

<!-- ====================================================================== -->

	<person id="108">
		<attributes>
			<attribute name="hasLicense" class="java.lang.String">false</attribute>
		</attributes>
		<plan selected="yes">
			<activity type="dummy" x="4000.0" y="700.0" end_time="06:29:08" >
			</activity>
			<leg mode="pt">
			</leg>
			<activity type="dummy" x="600.0" y="5200.0" end_time="24:00:00" >
			</activity>
		</plan>

	</person>

<!-- ====================================================================== -->

	<person id="109">
		<attributes>
			<attribute name="hasLicense" class="java.lang.String">false</attribute>
		</attributes>
		<plan selected="yes">
			<activity type="dummy" x="4000.0" y="5400.0" end_time="11:56:25" >
			</activity>
			<leg mode="pt">
			</leg>
			<activity type="dummy" x="4500.0" y="1900.0" end_time="24:00:00" >
			</activity>
		</plan>

	</person>

<!-- ====================================================================== -->

	<person id="11">
		<attributes>
			<attribute name="hasLicense" class="java.lang.String">false</attribute>
		</attributes>
		<plan selected="yes">
			<activity type="dummy" x="6500.0" y="4300.0" end_time="19:27:35" >
			</activity>
			<leg mode="pt">
			</leg>
			<activity type="dummy" x="3300.0" y="7100.0" end_time="24:00:00" >
			</activity>
		</plan>

	</person>

<!-- ====================================================================== -->

	<person id="110">
		<attributes>
			<attribute name="hasLicense" class="java.lang.String">false</attribute>
		</attributes>
		<plan selected="yes">
			<activity type="dummy" x="7200.0" y="9300.0" end_time="08:04:11" >
			</activity>
			<leg mode="pt">
			</leg>
			<activity type="dummy" x="2100.0" y="5800.0" end_time="24:00:00" >
			</activity>
		</plan>

	</person>

<!-- ====================================================================== -->

	<person id="111">
		<attributes>
			<attribute name="hasLicense" class="java.lang.String">false</attribute>
		</attributes>
		<plan selected="yes">
			<activity type="dummy" x="8400.0" y="4600.0" end_time="15:12:16" >
			</activity>
			<leg mode="pt">
			</leg>
			<activity type="dummy" x="4600.0" y="1800.0" end_time="24:00:00" >
			</activity>
		</plan>

	</person>

<!-- ====================================================================== -->

	<person id="112">
		<attributes>
			<attribute name="hasLicense" class="java.lang.String">false</attribute>
		</attributes>
		<plan selected="yes">
			<activity type="dummy" x="8000.0" y="7900.0" end_time="03:34:29" >
			</activity>
			<leg mode="pt">
			</leg>
			<activity type="dummy" x="7000.0" y="9600.0" end_time="24:00:00" >
			</activity>
		</plan>

	</person>

<!-- ====================================================================== -->

	<person id="113">
		<attributes>
			<attribute name="hasLicense" class="java.lang.String">false</attribute>
		</attributes>
		<plan selected="yes">
			<activity type="dummy" x="8200.0" y="6900.0" end_time="20:46:16" >
			</activity>
			<leg mode="pt">
			</leg>
			<activity type="dummy" x="7700.0" y="6300.0" end_time="24:00:00" >
			</activity>
		</plan>

	</person>

<!-- ====================================================================== -->

	<person id="114">
		<attributes>
			<attribute name="hasLicense" class="java.lang.String">false</attribute>
		</attributes>
		<plan selected="yes">
			<activity type="dummy" x="3100.0" y="500.0" end_time="06:40:07" >
			</activity>
			<leg mode="pt">
			</leg>
			<activity type="dummy" x="4200.0" y="1500.0" end_time="24:00:00" >
			</activity>
		</plan>

	</person>

<!-- ====================================================================== -->

	<person id="115">
		<attributes>
			<attribute name="hasLicense" class="java.lang.String">false</attribute>
		</attributes>
		<plan selected="yes">
			<activity type="dummy" x="2900.0" y="7700.0" end_time="08:43:15" >
			</activity>
			<leg mode="pt">
			</leg>
			<activity type="dummy" x="4300.0" y="6600.0" end_time="24:00:00" >
			</activity>
		</plan>

	</person>

<!-- ====================================================================== -->

	<person id="116">
		<attributes>
			<attribute name="hasLicense" class="java.lang.String">false</attribute>
		</attributes>
		<plan selected="yes">
			<activity type="dummy" x="2300.0" y="9400.0" end_time="13:56:40" >
			</activity>
			<leg mode="pt">
			</leg>
			<activity type="dummy" x="7000.0" y="9500.0" end_time="24:00:00" >
			</activity>
		</plan>

	</person>

<!-- ====================================================================== -->

	<person id="117">
		<attributes>
			<attribute name="hasLicense" class="java.lang.String">false</attribute>
		</attributes>
		<plan selected="yes">
			<activity type="dummy" x="7800.0" y="8500.0" end_time="08:19:07" >
			</activity>
			<leg mode="pt">
			</leg>
			<activity type="dummy" x="2800.0" y="8000.0" end_time="24:00:00" >
			</activity>
		</plan>

	</person>

<!-- ====================================================================== -->

	<person id="118">
		<attributes>
			<attribute name="hasLicense" class="java.lang.String">false</attribute>
		</attributes>
		<plan selected="yes">
			<activity type="dummy" x="8600.0" y="7000.0" end_time="16:14:26" >
			</activity>
			<leg mode="pt">
			</leg>
			<activity type="dummy" x="3300.0" y="2600.0" end_time="24:00:00" >
			</activity>
		</plan>

	</person>

<!-- ====================================================================== -->

	<person id="119">
		<attributes>
			<attribute name="hasLicense" class="java.lang.String">false</attribute>
		</attributes>
		<plan selected="yes">
			<activity type="dummy" x="1100.0" y="3600.0" end_time="13:33:59" >
			</activity>
			<leg mode="pt">
			</leg>
			<activity type="dummy" x="3700.0" y="8000.0" end_time="24:00:00" >
			</activity>
		</plan>

	</person>

<!-- ====================================================================== -->

	<person id="12">
		<attributes>
			<attribute name="hasLicense" class="java.lang.String">false</attribute>
		</attributes>
		<plan selected="yes">
			<activity type="dummy" x="3200.0" y="9600.0" end_time="14:55:27" >
			</activity>
			<leg mode="pt">
			</leg>
			<activity type="dummy" x="500.0" y="2800.0" end_time="24:00:00" >
			</activity>
		</plan>

	</person>

<!-- ====================================================================== -->

	<person id="120">
		<attributes>
			<attribute name="hasLicense" class="java.lang.String">false</attribute>
		</attributes>
		<plan selected="yes">
			<activity type="dummy" x="5200.0" y="8200.0" end_time="04:55:54" >
			</activity>
			<leg mode="pt">
			</leg>
			<activity type="dummy" x="9100.0" y="9700.0" end_time="24:00:00" >
			</activity>
		</plan>

	</person>

<!-- ====================================================================== -->

	<person id="121">
		<attributes>
			<attribute name="hasLicense" class="java.lang.String">false</attribute>
		</attributes>
		<plan selected="yes">
			<activity type="dummy" x="4200.0" y="1700.0" end_time="23:33:14" >
			</activity>
			<leg mode="pt">
			</leg>
			<activity type="dummy" x="7900.0" y="5900.0" end_time="24:00:00" >
			</activity>
		</plan>

	</person>

<!-- ====================================================================== -->

	<person id="122">
		<attributes>
			<attribute name="hasLicense" class="java.lang.String">false</attribute>
		</attributes>
		<plan selected="yes">
			<activity type="dummy" x="3200.0" y="300.0" end_time="23:09:13" >
			</activity>
			<leg mode="pt">
			</leg>
			<activity type="dummy" x="0.0" y="5300.0" end_time="24:00:00" >
			</activity>
		</plan>

	</person>

<!-- ====================================================================== -->

	<person id="123">
		<attributes>
			<attribute name="hasLicense" class="java.lang.String">false</attribute>
		</attributes>
		<plan selected="yes">
			<activity type="dummy" x="9700.0" y="4300.0" end_time="23:52:29" >
			</activity>
			<leg mode="pt">
			</leg>
			<activity type="dummy" x="8700.0" y="3300.0" end_time="24:00:00" >
			</activity>
		</plan>

	</person>

<!-- ====================================================================== -->

	<person id="124">
		<attributes>
			<attribute name="hasLicense" class="java.lang.String">false</attribute>
		</attributes>
		<plan selected="yes">
			<activity type="dummy" x="3700.0" y="2700.0" end_time="00:24:31" >
			</activity>
			<leg mode="pt">
			</leg>
			<activity type="dummy" x="6100.0" y="4500.0" end_time="24:00:00" >
			</activity>
		</plan>

	</person>

<!-- ====================================================================== -->

	<person id="125">
		<attributes>
			<attribute name="hasLicense" class="java.lang.String">false</attribute>
		</attributes>
		<plan selected="yes">
			<activity type="dummy" x="7900.0" y="5900.0" end_time="13:33:26" >
			</activity>
			<leg mode="pt">
			</leg>
			<activity type="dummy" x="3600.0" y="0.0" end_time="24:00:00" >
			</activity>
		</plan>

	</person>

<!-- ====================================================================== -->

	<person id="126">
		<attributes>
			<attribute name="hasLicense" class="java.lang.String">false</attribute>
		</attributes>
		<plan selected="yes">
			<activity type="dummy" x="9900.0" y="1400.0" end_time="20:45:06" >
			</activity>
			<leg mode="pt">
			</leg>
			<activity type="dummy" x="1300.0" y="9300.0" end_time="24:00:00" >
			</activity>
		</plan>

	</person>

<!-- ====================================================================== -->

	<person id="127">
		<attributes>
			<attribute name="hasLicense" class="java.lang.String">false</attribute>
		</attributes>
		<plan selected="yes">
			<activity type="dummy" x="2000.0" y="3700.0" end_time="12:41:01" >
			</activity>
			<leg mode="pt">
			</leg>
			<activity type="dummy" x="6800.0" y="3700.0" end_time="24:00:00" >
			</activity>
		</plan>

	</person>

<!-- ====================================================================== -->

	<person id="128">
		<attributes>
			<attribute name="hasLicense" class="java.lang.String">false</attribute>
		</attributes>
		<plan selected="yes">
			<activity type="dummy" x="5400.0" y="3100.0" end_time="18:46:51" >
			</activity>
			<leg mode="pt">
			</leg>
			<activity type="dummy" x="1200.0" y="6300.0" end_time="24:00:00" >
			</activity>
		</plan>

	</person>

<!-- ====================================================================== -->

	<person id="129">
		<attributes>
			<attribute name="hasLicense" class="java.lang.String">false</attribute>
		</attributes>
		<plan selected="yes">
			<activity type="dummy" x="7500.0" y="7200.0" end_time="07:57:08" >
			</activity>
			<leg mode="pt">
			</leg>
			<activity type="dummy" x="5900.0" y="2800.0" end_time="24:00:00" >
			</activity>
		</plan>

	</person>

<!-- ====================================================================== -->

	<person id="13">
		<attributes>
			<attribute name="hasLicense" class="java.lang.String">false</attribute>
		</attributes>
		<plan selected="yes">
			<activity type="dummy" x="1800.0" y="5400.0" end_time="01:47:21" >
			</activity>
			<leg mode="pt">
			</leg>
			<activity type="dummy" x="1800.0" y="200.0" end_time="24:00:00" >
			</activity>
		</plan>

	</person>

<!-- ====================================================================== -->

	<person id="130">
		<attributes>
			<attribute name="hasLicense" class="java.lang.String">false</attribute>
		</attributes>
		<plan selected="yes">
			<activity type="dummy" x="7900.0" y="1900.0" end_time="09:12:19" >
			</activity>
			<leg mode="pt">
			</leg>
			<activity type="dummy" x="4400.0" y="5500.0" end_time="24:00:00" >
			</activity>
		</plan>

	</person>

<!-- ====================================================================== -->

	<person id="131">
		<attributes>
			<attribute name="hasLicense" class="java.lang.String">false</attribute>
		</attributes>
		<plan selected="yes">
			<activity type="dummy" x="8000.0" y="4000.0" end_time="12:35:28" >
			</activity>
			<leg mode="pt">
			</leg>
			<activity type="dummy" x="300.0" y="600.0" end_time="24:00:00" >
			</activity>
		</plan>

	</person>

<!-- ====================================================================== -->

	<person id="132">
		<attributes>
			<attribute name="hasLicense" class="java.lang.String">false</attribute>
		</attributes>
		<plan selected="yes">
			<activity type="dummy" x="9700.0" y="8500.0" end_time="16:27:45" >
			</activity>
			<leg mode="pt">
			</leg>
			<activity type="dummy" x="6300.0" y="3000.0" end_time="24:00:00" >
			</activity>
		</plan>

	</person>

<!-- ====================================================================== -->

	<person id="133">
		<attributes>
			<attribute name="hasLicense" class="java.lang.String">false</attribute>
		</attributes>
		<plan selected="yes">
			<activity type="dummy" x="900.0" y="9900.0" end_time="14:14:43" >
			</activity>
			<leg mode="pt">
			</leg>
			<activity type="dummy" x="7800.0" y="8600.0" end_time="24:00:00" >
			</activity>
		</plan>

	</person>

<!-- ====================================================================== -->

	<person id="134">
		<attributes>
			<attribute name="hasLicense" class="java.lang.String">false</attribute>
		</attributes>
		<plan selected="yes">
			<activity type="dummy" x="5200.0" y="4400.0" end_time="01:44:06" >
			</activity>
			<leg mode="pt">
			</leg>
			<activity type="dummy" x="5600.0" y="8000.0" end_time="24:00:00" >
			</activity>
		</plan>

	</person>

<!-- ====================================================================== -->

	<person id="135">
		<attributes>
			<attribute name="hasLicense" class="java.lang.String">false</attribute>
		</attributes>
		<plan selected="yes">
			<activity type="dummy" x="1100.0" y="3200.0" end_time="05:59:24" >
			</activity>
			<leg mode="pt">
			</leg>
			<activity type="dummy" x="9900.0" y="7600.0" end_time="24:00:00" >
			</activity>
		</plan>

	</person>

<!-- ====================================================================== -->

	<person id="136">
		<attributes>
			<attribute name="hasLicense" class="java.lang.String">false</attribute>
		</attributes>
		<plan selected="yes">
			<activity type="dummy" x="7400.0" y="6800.0" end_time="11:57:41" >
			</activity>
			<leg mode="pt">
			</leg>
			<activity type="dummy" x="4900.0" y="3000.0" end_time="24:00:00" >
			</activity>
		</plan>

	</person>

<!-- ====================================================================== -->

	<person id="137">
		<attributes>
			<attribute name="hasLicense" class="java.lang.String">false</attribute>
		</attributes>
		<plan selected="yes">
			<activity type="dummy" x="7900.0" y="1100.0" end_time="00:37:51" >
			</activity>
			<leg mode="pt">
			</leg>
			<activity type="dummy" x="5000.0" y="2800.0" end_time="24:00:00" >
			</activity>
		</plan>

	</person>

<!-- ====================================================================== -->

	<person id="138">
		<attributes>
			<attribute name="hasLicense" class="java.lang.String">false</attribute>
		</attributes>
		<plan selected="yes">
			<activity type="dummy" x="7500.0" y="2800.0" end_time="23:03:05" >
			</activity>
			<leg mode="pt">
			</leg>
			<activity type="dummy" x="8500.0" y="8500.0" end_time="24:00:00" >
			</activity>
		</plan>

	</person>

<!-- ====================================================================== -->

	<person id="139">
		<attributes>
			<attribute name="hasLicense" class="java.lang.String">false</attribute>
		</attributes>
		<plan selected="yes">
			<activity type="dummy" x="1100.0" y="5400.0" end_time="01:39:34" >
			</activity>
			<leg mode="pt">
			</leg>
			<activity type="dummy" x="0.0" y="600.0" end_time="24:00:00" >
			</activity>
		</plan>

	</person>

<!-- ====================================================================== -->

	<person id="14">
		<attributes>
			<attribute name="hasLicense" class="java.lang.String">false</attribute>
		</attributes>
		<plan selected="yes">
			<activity type="dummy" x="6000.0" y="9200.0" end_time="09:08:43" >
			</activity>
			<leg mode="pt">
			</leg>
			<activity type="dummy" x="1600.0" y="5900.0" end_time="24:00:00" >
			</activity>
		</plan>

	</person>

<!-- ====================================================================== -->

	<person id="140">
		<attributes>
			<attribute name="hasLicense" class="java.lang.String">false</attribute>
		</attributes>
		<plan selected="yes">
			<activity type="dummy" x="9600.0" y="1800.0" end_time="11:13:18" >
			</activity>
			<leg mode="pt">
			</leg>
			<activity type="dummy" x="8500.0" y="8100.0" end_time="24:00:00" >
			</activity>
		</plan>

	</person>

<!-- ====================================================================== -->

	<person id="141">
		<attributes>
			<attribute name="hasLicense" class="java.lang.String">false</attribute>
		</attributes>
		<plan selected="yes">
			<activity type="dummy" x="1600.0" y="5000.0" end_time="08:55:46" >
			</activity>
			<leg mode="pt">
			</leg>
			<activity type="dummy" x="3500.0" y="3300.0" end_time="24:00:00" >
			</activity>
		</plan>

	</person>

<!-- ====================================================================== -->

	<person id="142">
		<attributes>
			<attribute name="hasLicense" class="java.lang.String">false</attribute>
		</attributes>
		<plan selected="yes">
			<activity type="dummy" x="5400.0" y="7700.0" end_time="07:43:17" >
			</activity>
			<leg mode="pt">
			</leg>
			<activity type="dummy" x="4500.0" y="6800.0" end_time="24:00:00" >
			</activity>
		</plan>

	</person>

<!-- ====================================================================== -->

	<person id="143">
		<attributes>
			<attribute name="hasLicense" class="java.lang.String">false</attribute>
		</attributes>
		<plan selected="yes">
			<activity type="dummy" x="2500.0" y="2800.0" end_time="23:27:31" >
			</activity>
			<leg mode="pt">
			</leg>
			<activity type="dummy" x="6300.0" y="9800.0" end_time="24:00:00" >
			</activity>
		</plan>

	</person>

<!-- ====================================================================== -->

	<person id="144">
		<attributes>
			<attribute name="hasLicense" class="java.lang.String">false</attribute>
		</attributes>
		<plan selected="yes">
			<activity type="dummy" x="8500.0" y="8300.0" end_time="02:09:36" >
			</activity>
			<leg mode="pt">
			</leg>
			<activity type="dummy" x="9600.0" y="4800.0" end_time="24:00:00" >
			</activity>
		</plan>

	</person>

<!-- ====================================================================== -->

	<person id="145">
		<attributes>
			<attribute name="hasLicense" class="java.lang.String">false</attribute>
		</attributes>
		<plan selected="yes">
			<activity type="dummy" x="7900.0" y="2000.0" end_time="10:27:35" >
			</activity>
			<leg mode="pt">
			</leg>
			<activity type="dummy" x="6600.0" y="7700.0" end_time="24:00:00" >
			</activity>
		</plan>

	</person>

<!-- ====================================================================== -->

	<person id="146">
		<attributes>
			<attribute name="hasLicense" class="java.lang.String">false</attribute>
		</attributes>
		<plan selected="yes">
			<activity type="dummy" x="6800.0" y="7100.0" end_time="16:11:55" >
			</activity>
			<leg mode="pt">
			</leg>
			<activity type="dummy" x="4800.0" y="5900.0" end_time="24:00:00" >
			</activity>
		</plan>

	</person>

<!-- ====================================================================== -->

	<person id="147">
		<attributes>
			<attribute name="hasLicense" class="java.lang.String">false</attribute>
		</attributes>
		<plan selected="yes">
			<activity type="dummy" x="8700.0" y="10000.0" end_time="04:30:22" >
			</activity>
			<leg mode="pt">
			</leg>
			<activity type="dummy" x="100.0" y="600.0" end_time="24:00:00" >
			</activity>
		</plan>

	</person>

<!-- ====================================================================== -->

	<person id="148">
		<attributes>
			<attribute name="hasLicense" class="java.lang.String">false</attribute>
		</attributes>
		<plan selected="yes">
			<activity type="dummy" x="1000.0" y="2400.0" end_time="09:25:22" >
			</activity>
			<leg mode="pt">
			</leg>
			<activity type="dummy" x="3600.0" y="7800.0" end_time="24:00:00" >
			</activity>
		</plan>

	</person>

<!-- ====================================================================== -->

	<person id="149">
		<attributes>
			<attribute name="hasLicense" class="java.lang.String">false</attribute>
		</attributes>
		<plan selected="yes">
			<activity type="dummy" x="4300.0" y="8100.0" end_time="10:37:44" >
			</activity>
			<leg mode="pt">
			</leg>
			<activity type="dummy" x="8600.0" y="8300.0" end_time="24:00:00" >
			</activity>
		</plan>

	</person>

<!-- ====================================================================== -->

	<person id="15">
		<attributes>
			<attribute name="hasLicense" class="java.lang.String">false</attribute>
		</attributes>
		<plan selected="yes">
			<activity type="dummy" x="4500.0" y="5300.0" end_time="21:31:03" >
			</activity>
			<leg mode="pt">
			</leg>
			<activity type="dummy" x="7200.0" y="8200.0" end_time="24:00:00" >
			</activity>
		</plan>

	</person>

<!-- ====================================================================== -->

	<person id="150">
		<attributes>
			<attribute name="hasLicense" class="java.lang.String">false</attribute>
		</attributes>
		<plan selected="yes">
			<activity type="dummy" x="7700.0" y="7300.0" end_time="03:58:02" >
			</activity>
			<leg mode="pt">
			</leg>
			<activity type="dummy" x="700.0" y="900.0" end_time="24:00:00" >
			</activity>
		</plan>

	</person>

<!-- ====================================================================== -->

	<person id="151">
		<attributes>
			<attribute name="hasLicense" class="java.lang.String">false</attribute>
		</attributes>
		<plan selected="yes">
			<activity type="dummy" x="3500.0" y="2400.0" end_time="17:33:05" >
			</activity>
			<leg mode="pt">
			</leg>
			<activity type="dummy" x="3600.0" y="7000.0" end_time="24:00:00" >
			</activity>
		</plan>

	</person>

<!-- ====================================================================== -->

	<person id="152">
		<attributes>
			<attribute name="hasLicense" class="java.lang.String">false</attribute>
		</attributes>
		<plan selected="yes">
			<activity type="dummy" x="2700.0" y="800.0" end_time="20:20:44" >
			</activity>
			<leg mode="pt">
			</leg>
			<activity type="dummy" x="8100.0" y="900.0" end_time="24:00:00" >
			</activity>
		</plan>

	</person>

<!-- ====================================================================== -->

	<person id="153">
		<attributes>
			<attribute name="hasLicense" class="java.lang.String">false</attribute>
		</attributes>
		<plan selected="yes">
			<activity type="dummy" x="3600.0" y="600.0" end_time="12:47:09" >
			</activity>
			<leg mode="pt">
			</leg>
			<activity type="dummy" x="7200.0" y="7500.0" end_time="24:00:00" >
			</activity>
		</plan>

	</person>

<!-- ====================================================================== -->

	<person id="154">
		<attributes>
			<attribute name="hasLicense" class="java.lang.String">false</attribute>
		</attributes>
		<plan selected="yes">
			<activity type="dummy" x="700.0" y="9100.0" end_time="13:34:06" >
			</activity>
			<leg mode="pt">
			</leg>
			<activity type="dummy" x="5800.0" y="4900.0" end_time="24:00:00" >
			</activity>
		</plan>

	</person>

<!-- ====================================================================== -->

	<person id="155">
		<attributes>
			<attribute name="hasLicense" class="java.lang.String">false</attribute>
		</attributes>
		<plan selected="yes">
			<activity type="dummy" x="8100.0" y="4700.0" end_time="01:48:03" >
			</activity>
			<leg mode="pt">
			</leg>
			<activity type="dummy" x="9800.0" y="6600.0" end_time="24:00:00" >
			</activity>
		</plan>

	</person>

<!-- ====================================================================== -->

	<person id="156">
		<attributes>
			<attribute name="hasLicense" class="java.lang.String">false</attribute>
		</attributes>
		<plan selected="yes">
			<activity type="dummy" x="6100.0" y="9600.0" end_time="14:12:51" >
			</activity>
			<leg mode="pt">
			</leg>
			<activity type="dummy" x="2100.0" y="6900.0" end_time="24:00:00" >
			</activity>
		</plan>

	</person>

<!-- ====================================================================== -->

	<person id="157">
		<attributes>
			<attribute name="hasLicense" class="java.lang.String">false</attribute>
		</attributes>
		<plan selected="yes">
			<activity type="dummy" x="6400.0" y="7400.0" end_time="08:53:19" >
			</activity>
			<leg mode="pt">
			</leg>
			<activity type="dummy" x="5000.0" y="4900.0" end_time="24:00:00" >
			</activity>
		</plan>

	</person>
