<?xml version="1.0" encoding="UTF-8"?>
<!DOCTYPE transitSchedule SYSTEM "http://www.matsim.org/files/dtd/transitSchedule_v2.dtd">

<transitSchedule>

	<transitStops>
		<stopFacility id="0" x="500.0" y="0.0" linkRefId="505_506" isBlocking="false"/>
		<stopFacility id="10" x="500.0" y="1000.0" linkRefId="515_516" isBlocking="false"/>
		<stopFacility id="100" x="500.0" y="10000.0" linkRefId="605_604" isBlocking="false"/>
		<stopFacility id="1000" x="5500.0" y="0.0" linkRefId="5555_5556" isBlocking="false"/>
		<stopFacility id="1010" x="5500.0" y="1000.0" linkRefId="5565_5566" isBlocking="false"/>
		<stopFacility id="1020" x="5500.0" y="2000.0" linkRefId="5575_5576" isBlocking="false"/>
		<stopFacility id="1030" x="5500.0" y="3000.0" linkRefId="5585_5586" isBlocking="false"/>
		<stopFacility id="1040" x="5500.0" y="4000.0" linkRefId="5595_5596" isBlocking="false"/>
		<stopFacility id="1050" x="5500.0" y="5000.0" linkRefId="5605_5606" isBlocking="false"/>
		<stopFacility id="1060" x="5500.0" y="6000.0" linkRefId="5615_5616" isBlocking="false"/>
		<stopFacility id="1070" x="5500.0" y="7000.0" linkRefId="5625_5626" isBlocking="false"/>
		<stopFacility id="1080" x="5500.0" y="8000.0" linkRefId="5635_5636" isBlocking="false"/>
		<stopFacility id="1090" x="5500.0" y="9000.0" linkRefId="5645_5646" isBlocking="false"/>
		<stopFacility id="110" x="500.0" y="9000.0" linkRefId="595_594" isBlocking="false"/>
		<stopFacility id="1100" x="5500.0" y="10000.0" linkRefId="5655_5654" isBlocking="false"/>
		<stopFacility id="1110" x="5500.0" y="9000.0" linkRefId="5645_5644" isBlocking="false"/>
		<stopFacility id="1120" x="5500.0" y="8000.0" linkRefId="5635_5634" isBlocking="false"/>
		<stopFacility id="1130" x="5500.0" y="7000.0" linkRefId="5625_5624" isBlocking="false"/>
		<stopFacility id="1140" x="5500.0" y="6000.0" linkRefId="5615_5614" isBlocking="false"/>
		<stopFacility id="1150" x="5500.0" y="5000.0" linkRefId="5605_5604" isBlocking="false"/>
		<stopFacility id="1160" x="5500.0" y="4000.0" linkRefId="5595_5594" isBlocking="false"/>
		<stopFacility id="1170" x="5500.0" y="3000.0" linkRefId="5585_5584" isBlocking="false"/>
		<stopFacility id="1180" x="5500.0" y="2000.0" linkRefId="5575_5574" isBlocking="false"/>
		<stopFacility id="1190" x="5500.0" y="1000.0" linkRefId="5565_5564" isBlocking="false"/>
		<stopFacility id="120" x="500.0" y="8000.0" linkRefId="585_584" isBlocking="false"/>
		<stopFacility id="1200" x="6500.0" y="0.0" linkRefId="6565_6566" isBlocking="false"/>
		<stopFacility id="1210" x="6500.0" y="1000.0" linkRefId="6575_6576" isBlocking="false"/>
		<stopFacility id="1220" x="6500.0" y="2000.0" linkRefId="6585_6586" isBlocking="false"/>
		<stopFacility id="1230" x="6500.0" y="3000.0" linkRefId="6595_6596" isBlocking="false"/>
		<stopFacility id="1240" x="6500.0" y="4000.0" linkRefId="6605_6606" isBlocking="false"/>
		<stopFacility id="1250" x="6500.0" y="5000.0" linkRefId="6615_6616" isBlocking="false"/>
		<stopFacility id="1260" x="6500.0" y="6000.0" linkRefId="6625_6626" isBlocking="false"/>
		<stopFacility id="1270" x="6500.0" y="7000.0" linkRefId="6635_6636" isBlocking="false"/>
		<stopFacility id="1280" x="6500.0" y="8000.0" linkRefId="6645_6646" isBlocking="false"/>
		<stopFacility id="1290" x="6500.0" y="9000.0" linkRefId="6655_6656" isBlocking="false"/>
		<stopFacility id="130" x="500.0" y="7000.0" linkRefId="575_574" isBlocking="false"/>
		<stopFacility id="1300" x="6500.0" y="10000.0" linkRefId="6665_6664" isBlocking="false"/>
		<stopFacility id="1310" x="6500.0" y="9000.0" linkRefId="6655_6654" isBlocking="false"/>
		<stopFacility id="1320" x="6500.0" y="8000.0" linkRefId="6645_6644" isBlocking="false"/>
		<stopFacility id="1330" x="6500.0" y="7000.0" linkRefId="6635_6634" isBlocking="false"/>
		<stopFacility id="1340" x="6500.0" y="6000.0" linkRefId="6625_6624" isBlocking="false"/>
		<stopFacility id="1350" x="6500.0" y="5000.0" linkRefId="6615_6614" isBlocking="false"/>
		<stopFacility id="1360" x="6500.0" y="4000.0" linkRefId="6605_6604" isBlocking="false"/>
		<stopFacility id="1370" x="6500.0" y="3000.0" linkRefId="6595_6594" isBlocking="false"/>
		<stopFacility id="1380" x="6500.0" y="2000.0" linkRefId="6585_6584" isBlocking="false"/>
		<stopFacility id="1390" x="6500.0" y="1000.0" linkRefId="6575_6574" isBlocking="false"/>
		<stopFacility id="140" x="500.0" y="6000.0" linkRefId="565_564" isBlocking="false"/>
		<stopFacility id="1400" x="7500.0" y="0.0" linkRefId="7575_7576" isBlocking="false"/>
		<stopFacility id="1410" x="7500.0" y="1000.0" linkRefId="7585_7586" isBlocking="false"/>
		<stopFacility id="1420" x="7500.0" y="2000.0" linkRefId="7595_7596" isBlocking="false"/>
		<stopFacility id="1430" x="7500.0" y="3000.0" linkRefId="7605_7606" isBlocking="false"/>
		<stopFacility id="1440" x="7500.0" y="4000.0" linkRefId="7615_7616" isBlocking="false"/>
		<stopFacility id="1450" x="7500.0" y="5000.0" linkRefId="7625_7626" isBlocking="false"/>
		<stopFacility id="1460" x="7500.0" y="6000.0" linkRefId="7635_7636" isBlocking="false"/>
		<stopFacility id="1470" x="7500.0" y="7000.0" linkRefId="7645_7646" isBlocking="false"/>
		<stopFacility id="1480" x="7500.0" y="8000.0" linkRefId="7655_7656" isBlocking="false"/>
		<stopFacility id="1490" x="7500.0" y="9000.0" linkRefId="7665_7666" isBlocking="false"/>
		<stopFacility id="150" x="500.0" y="5000.0" linkRefId="555_554" isBlocking="false"/>
		<stopFacility id="1500" x="7500.0" y="10000.0" linkRefId="7675_7674" isBlocking="false"/>
		<stopFacility id="1510" x="7500.0" y="9000.0" linkRefId="7665_7664" isBlocking="false"/>
		<stopFacility id="1520" x="7500.0" y="8000.0" linkRefId="7655_7654" isBlocking="false"/>
		<stopFacility id="1530" x="7500.0" y="7000.0" linkRefId="7645_7644" isBlocking="false"/>
		<stopFacility id="1540" x="7500.0" y="6000.0" linkRefId="7635_7634" isBlocking="false"/>
		<stopFacility id="1550" x="7500.0" y="5000.0" linkRefId="7625_7624" isBlocking="false"/>
		<stopFacility id="1560" x="7500.0" y="4000.0" linkRefId="7615_7614" isBlocking="false"/>
		<stopFacility id="1570" x="7500.0" y="3000.0" linkRefId="7605_7604" isBlocking="false"/>
		<stopFacility id="1580" x="7500.0" y="2000.0" linkRefId="7595_7594" isBlocking="false"/>
		<stopFacility id="1590" x="7500.0" y="1000.0" linkRefId="7585_7584" isBlocking="false"/>
		<stopFacility id="160" x="500.0" y="4000.0" linkRefId="545_544" isBlocking="false"/>
		<stopFacility id="1600" x="8500.0" y="0.0" linkRefId="8585_8586" isBlocking="false"/>
		<stopFacility id="1610" x="8500.0" y="1000.0" linkRefId="8595_8596" isBlocking="false"/>
		<stopFacility id="1620" x="8500.0" y="2000.0" linkRefId="8605_8606" isBlocking="false"/>
		<stopFacility id="1630" x="8500.0" y="3000.0" linkRefId="8615_8616" isBlocking="false"/>
		<stopFacility id="1640" x="8500.0" y="4000.0" linkRefId="8625_8626" isBlocking="false"/>
		<stopFacility id="1650" x="8500.0" y="5000.0" linkRefId="8635_8636" isBlocking="false"/>
		<stopFacility id="1660" x="8500.0" y="6000.0" linkRefId="8645_8646" isBlocking="false"/>
		<stopFacility id="1670" x="8500.0" y="7000.0" linkRefId="8655_8656" isBlocking="false"/>
		<stopFacility id="1680" x="8500.0" y="8000.0" linkRefId="8665_8666" isBlocking="false"/>
		<stopFacility id="1690" x="8500.0" y="9000.0" linkRefId="8675_8676" isBlocking="false"/>
		<stopFacility id="170" x="500.0" y="3000.0" linkRefId="535_534" isBlocking="false"/>
		<stopFacility id="1700" x="8500.0" y="10000.0" linkRefId="8685_8684" isBlocking="false"/>
		<stopFacility id="1710" x="8500.0" y="9000.0" linkRefId="8675_8674" isBlocking="false"/>
		<stopFacility id="1720" x="8500.0" y="8000.0" linkRefId="8665_8664" isBlocking="false"/>
		<stopFacility id="1730" x="8500.0" y="7000.0" linkRefId="8655_8654" isBlocking="false"/>
		<stopFacility id="1740" x="8500.0" y="6000.0" linkRefId="8645_8644" isBlocking="false"/>
		<stopFacility id="1750" x="8500.0" y="5000.0" linkRefId="8635_8634" isBlocking="false"/>
		<stopFacility id="1760" x="8500.0" y="4000.0" linkRefId="8625_8624" isBlocking="false"/>
		<stopFacility id="1770" x="8500.0" y="3000.0" linkRefId="8615_8614" isBlocking="false"/>
		<stopFacility id="1780" x="8500.0" y="2000.0" linkRefId="8605_8604" isBlocking="false"/>
		<stopFacility id="1790" x="8500.0" y="1000.0" linkRefId="8595_8594" isBlocking="false"/>
		<stopFacility id="180" x="500.0" y="2000.0" linkRefId="525_524" isBlocking="false"/>
		<stopFacility id="1800" x="9500.0" y="0.0" linkRefId="9595_9596" isBlocking="false"/>
		<stopFacility id="1810" x="9500.0" y="1000.0" linkRefId="9605_9606" isBlocking="false"/>
		<stopFacility id="1820" x="9500.0" y="2000.0" linkRefId="9615_9616" isBlocking="false"/>
		<stopFacility id="1830" x="9500.0" y="3000.0" linkRefId="9625_9626" isBlocking="false"/>
		<stopFacility id="1840" x="9500.0" y="4000.0" linkRefId="9635_9636" isBlocking="false"/>
		<stopFacility id="1850" x="9500.0" y="5000.0" linkRefId="9645_9646" isBlocking="false"/>
		<stopFacility id="1860" x="9500.0" y="6000.0" linkRefId="9655_9656" isBlocking="false"/>
		<stopFacility id="1870" x="9500.0" y="7000.0" linkRefId="9665_9666" isBlocking="false"/>
		<stopFacility id="1880" x="9500.0" y="8000.0" linkRefId="9675_9676" isBlocking="false"/>
		<stopFacility id="1890" x="9500.0" y="9000.0" linkRefId="9685_9686" isBlocking="false"/>
		<stopFacility id="190" x="500.0" y="1000.0" linkRefId="515_514" isBlocking="false"/>
		<stopFacility id="1900" x="9500.0" y="10000.0" linkRefId="9695_9694" isBlocking="false"/>
		<stopFacility id="1910" x="9500.0" y="9000.0" linkRefId="9685_9684" isBlocking="false"/>
		<stopFacility id="1920" x="9500.0" y="8000.0" linkRefId="9675_9674" isBlocking="false"/>
		<stopFacility id="1930" x="9500.0" y="7000.0" linkRefId="9665_9664" isBlocking="false"/>
		<stopFacility id="1940" x="9500.0" y="6000.0" linkRefId="9655_9654" isBlocking="false"/>
		<stopFacility id="1950" x="9500.0" y="5000.0" linkRefId="9645_9644" isBlocking="false"/>
		<stopFacility id="1960" x="9500.0" y="4000.0" linkRefId="9635_9634" isBlocking="false"/>
		<stopFacility id="1970" x="9500.0" y="3000.0" linkRefId="9625_9624" isBlocking="false"/>
		<stopFacility id="1980" x="9500.0" y="2000.0" linkRefId="9615_9614" isBlocking="false"/>
		<stopFacility id="1990" x="9500.0" y="1000.0" linkRefId="9605_9604" isBlocking="false"/>
		<stopFacility id="20" x="500.0" y="2000.0" linkRefId="525_526" isBlocking="false"/>
		<stopFacility id="200" x="1500.0" y="0.0" linkRefId="1515_1516" isBlocking="false"/>
		<stopFacility id="2000" x="500.0" y="10000.0" linkRefId="605_604" isBlocking="false"/>
		<stopFacility id="2010" x="500.0" y="9000.0" linkRefId="595_594" isBlocking="false"/>
		<stopFacility id="2020" x="500.0" y="8000.0" linkRefId="585_584" isBlocking="false"/>
		<stopFacility id="2030" x="500.0" y="7000.0" linkRefId="575_574" isBlocking="false"/>
		<stopFacility id="2040" x="500.0" y="6000.0" linkRefId="565_564" isBlocking="false"/>
		<stopFacility id="2050" x="500.0" y="5000.0" linkRefId="555_554" isBlocking="false"/>
		<stopFacility id="2060" x="500.0" y="4000.0" linkRefId="545_544" isBlocking="false"/>
		<stopFacility id="2070" x="500.0" y="3000.0" linkRefId="535_534" isBlocking="false"/>
		<stopFacility id="2080" x="500.0" y="2000.0" linkRefId="525_524" isBlocking="false"/>
		<stopFacility id="2090" x="500.0" y="1000.0" linkRefId="515_514" isBlocking="false"/>
		<stopFacility id="210" x="1500.0" y="1000.0" linkRefId="1525_1526" isBlocking="false"/>
		<stopFacility id="2100" x="500.0" y="0.0" linkRefId="505_506" isBlocking="false"/>
		<stopFacility id="2110" x="500.0" y="1000.0" linkRefId="515_516" isBlocking="false"/>
		<stopFacility id="2120" x="500.0" y="2000.0" linkRefId="525_526" isBlocking="false"/>
		<stopFacility id="2130" x="500.0" y="3000.0" linkRefId="535_536" isBlocking="false"/>
		<stopFacility id="2140" x="500.0" y="4000.0" linkRefId="545_546" isBlocking="false"/>
		<stopFacility id="2150" x="500.0" y="5000.0" linkRefId="555_556" isBlocking="false"/>
		<stopFacility id="2160" x="500.0" y="6000.0" linkRefId="565_566" isBlocking="false"/>
		<stopFacility id="2170" x="500.0" y="7000.0" linkRefId="575_576" isBlocking="false"/>
		<stopFacility id="2180" x="500.0" y="8000.0" linkRefId="585_586" isBlocking="false"/>
		<stopFacility id="2190" x="500.0" y="9000.0" linkRefId="595_596" isBlocking="false"/>
		<stopFacility id="220" x="1500.0" y="2000.0" linkRefId="1535_1536" isBlocking="false"/>
		<stopFacility id="2200" x="1500.0" y="10000.0" linkRefId="1615_1614" isBlocking="false"/>
		<stopFacility id="2210" x="1500.0" y="9000.0" linkRefId="1605_1604" isBlocking="false"/>
		<stopFacility id="2220" x="1500.0" y="8000.0" linkRefId="1595_1594" isBlocking="false"/>
		<stopFacility id="2230" x="1500.0" y="7000.0" linkRefId="1585_1584" isBlocking="false"/>
		<stopFacility id="2240" x="1500.0" y="6000.0" linkRefId="1575_1574" isBlocking="false"/>
		<stopFacility id="2250" x="1500.0" y="5000.0" linkRefId="1565_1564" isBlocking="false"/>
		<stopFacility id="2260" x="1500.0" y="4000.0" linkRefId="1555_1554" isBlocking="false"/>
		<stopFacility id="2270" x="1500.0" y="3000.0" linkRefId="1545_1544" isBlocking="false"/>
		<stopFacility id="2280" x="1500.0" y="2000.0" linkRefId="1535_1534" isBlocking="false"/>
		<stopFacility id="2290" x="1500.0" y="1000.0" linkRefId="1525_1524" isBlocking="false"/>
		<stopFacility id="230" x="1500.0" y="3000.0" linkRefId="1545_1546" isBlocking="false"/>
		<stopFacility id="2300" x="1500.0" y="0.0" linkRefId="1515_1516" isBlocking="false"/>
		<stopFacility id="2310" x="1500.0" y="1000.0" linkRefId="1525_1526" isBlocking="false"/>
		<stopFacility id="2320" x="1500.0" y="2000.0" linkRefId="1535_1536" isBlocking="false"/>
		<stopFacility id="2330" x="1500.0" y="3000.0" linkRefId="1545_1546" isBlocking="false"/>
		<stopFacility id="2340" x="1500.0" y="4000.0" linkRefId="1555_1556" isBlocking="false"/>
		<stopFacility id="2350" x="1500.0" y="5000.0" linkRefId="1565_1566" isBlocking="false"/>
		<stopFacility id="2360" x="1500.0" y="6000.0" linkRefId="1575_1576" isBlocking="false"/>
		<stopFacility id="2370" x="1500.0" y="7000.0" linkRefId="1585_1586" isBlocking="false"/>
		<stopFacility id="2380" x="1500.0" y="8000.0" linkRefId="1595_1596" isBlocking="false"/>
		<stopFacility id="2390" x="1500.0" y="9000.0" linkRefId="1605_1606" isBlocking="false"/>
		<stopFacility id="240" x="1500.0" y="4000.0" linkRefId="1555_1556" isBlocking="false"/>
		<stopFacility id="2400" x="2500.0" y="10000.0" linkRefId="2625_2624" isBlocking="false"/>
		<stopFacility id="2410" x="2500.0" y="9000.0" linkRefId="2615_2614" isBlocking="false"/>
		<stopFacility id="2420" x="2500.0" y="8000.0" linkRefId="2605_2604" isBlocking="false"/>
		<stopFacility id="2430" x="2500.0" y="7000.0" linkRefId="2595_2594" isBlocking="false"/>
		<stopFacility id="2440" x="2500.0" y="6000.0" linkRefId="2585_2584" isBlocking="false"/>
		<stopFacility id="2450" x="2500.0" y="5000.0" linkRefId="2575_2574" isBlocking="false"/>
		<stopFacility id="2460" x="2500.0" y="4000.0" linkRefId="2565_2564" isBlocking="false"/>
		<stopFacility id="2470" x="2500.0" y="3000.0" linkRefId="2555_2554" isBlocking="false"/>
		<stopFacility id="2480" x="2500.0" y="2000.0" linkRefId="2545_2544" isBlocking="false"/>
		<stopFacility id="2490" x="2500.0" y="1000.0" linkRefId="2535_2534" isBlocking="false"/>
		<stopFacility id="250" x="1500.0" y="5000.0" linkRefId="1565_1566" isBlocking="false"/>
		<stopFacility id="2500" x="2500.0" y="0.0" linkRefId="2525_2526" isBlocking="false"/>
		<stopFacility id="2510" x="2500.0" y="1000.0" linkRefId="2535_2536" isBlocking="false"/>
		<stopFacility id="2520" x="2500.0" y="2000.0" linkRefId="2545_2546" isBlocking="false"/>
		<stopFacility id="2530" x="2500.0" y="3000.0" linkRefId="2555_2556" isBlocking="false"/>
		<stopFacility id="2540" x="2500.0" y="4000.0" linkRefId="2565_2566" isBlocking="false"/>
		<stopFacility id="2550" x="2500.0" y="5000.0" linkRefId="2575_2576" isBlocking="false"/>
		<stopFacility id="2560" x="2500.0" y="6000.0" linkRefId="2585_2586" isBlocking="false"/>
		<stopFacility id="2570" x="2500.0" y="7000.0" linkRefId="2595_2596" isBlocking="false"/>
		<stopFacility id="2580" x="2500.0" y="8000.0" linkRefId="2605_2606" isBlocking="false"/>
		<stopFacility id="2590" x="2500.0" y="9000.0" linkRefId="2615_2616" isBlocking="false"/>
		<stopFacility id="260" x="1500.0" y="6000.0" linkRefId="1575_1576" isBlocking="false"/>
		<stopFacility id="2600" x="3500.0" y="10000.0" linkRefId="3635_3634" isBlocking="false"/>
		<stopFacility id="2610" x="3500.0" y="9000.0" linkRefId="3625_3624" isBlocking="false"/>
		<stopFacility id="2620" x="3500.0" y="8000.0" linkRefId="3615_3614" isBlocking="false"/>
		<stopFacility id="2630" x="3500.0" y="7000.0" linkRefId="3605_3604" isBlocking="false"/>
		<stopFacility id="2640" x="3500.0" y="6000.0" linkRefId="3595_3594" isBlocking="false"/>
		<stopFacility id="2650" x="3500.0" y="5000.0" linkRefId="3585_3584" isBlocking="false"/>
		<stopFacility id="2660" x="3500.0" y="4000.0" linkRefId="3575_3574" isBlocking="false"/>
		<stopFacility id="2670" x="3500.0" y="3000.0" linkRefId="3565_3564" isBlocking="false"/>
		<stopFacility id="2680" x="3500.0" y="2000.0" linkRefId="3555_3554" isBlocking="false"/>
		<stopFacility id="2690" x="3500.0" y="1000.0" linkRefId="3545_3544" isBlocking="false"/>
		<stopFacility id="270" x="1500.0" y="7000.0" linkRefId="1585_1586" isBlocking="false"/>
		<stopFacility id="2700" x="3500.0" y="0.0" linkRefId="3535_3536" isBlocking="false"/>
		<stopFacility id="2710" x="3500.0" y="1000.0" linkRefId="3545_3546" isBlocking="false"/>
		<stopFacility id="2720" x="3500.0" y="2000.0" linkRefId="3555_3556" isBlocking="false"/>
		<stopFacility id="2730" x="3500.0" y="3000.0" linkRefId="3565_3566" isBlocking="false"/>
		<stopFacility id="2740" x="3500.0" y="4000.0" linkRefId="3575_3576" isBlocking="false"/>
		<stopFacility id="2750" x="3500.0" y="5000.0" linkRefId="3585_3586" isBlocking="false"/>
		<stopFacility id="2760" x="3500.0" y="6000.0" linkRefId="3595_3596" isBlocking="false"/>
		<stopFacility id="2770" x="3500.0" y="7000.0" linkRefId="3605_3606" isBlocking="false"/>
		<stopFacility id="2780" x="3500.0" y="8000.0" linkRefId="3615_3616" isBlocking="false"/>
		<stopFacility id="2790" x="3500.0" y="9000.0" linkRefId="3625_3626" isBlocking="false"/>
		<stopFacility id="280" x="1500.0" y="8000.0" linkRefId="1595_1596" isBlocking="false"/>
		<stopFacility id="2800" x="4500.0" y="10000.0" linkRefId="4645_4644" isBlocking="false"/>
		<stopFacility id="2810" x="4500.0" y="9000.0" linkRefId="4635_4634" isBlocking="false"/>
		<stopFacility id="2820" x="4500.0" y="8000.0" linkRefId="4625_4624" isBlocking="false"/>
		<stopFacility id="2830" x="4500.0" y="7000.0" linkRefId="4615_4614" isBlocking="false"/>
		<stopFacility id="2840" x="4500.0" y="6000.0" linkRefId="4605_4604" isBlocking="false"/>
		<stopFacility id="2850" x="4500.0" y="5000.0" linkRefId="4595_4594" isBlocking="false"/>
		<stopFacility id="2860" x="4500.0" y="4000.0" linkRefId="4585_4584" isBlocking="false"/>
		<stopFacility id="2870" x="4500.0" y="3000.0" linkRefId="4575_4574" isBlocking="false"/>
		<stopFacility id="2880" x="4500.0" y="2000.0" linkRefId="4565_4564" isBlocking="false"/>
		<stopFacility id="2890" x="4500.0" y="1000.0" linkRefId="4555_4554" isBlocking="false"/>
		<stopFacility id="290" x="1500.0" y="9000.0" linkRefId="1605_1606" isBlocking="false"/>
		<stopFacility id="2900" x="4500.0" y="0.0" linkRefId="4545_4546" isBlocking="false"/>
		<stopFacility id="2910" x="4500.0" y="1000.0" linkRefId="4555_4556" isBlocking="false"/>
		<stopFacility id="2920" x="4500.0" y="2000.0" linkRefId="4565_4566" isBlocking="false"/>
		<stopFacility id="2930" x="4500.0" y="3000.0" linkRefId="4575_4576" isBlocking="false"/>
		<stopFacility id="2940" x="4500.0" y="4000.0" linkRefId="4585_4586" isBlocking="false"/>
		<stopFacility id="2950" x="4500.0" y="5000.0" linkRefId="4595_4596" isBlocking="false"/>
		<stopFacility id="2960" x="4500.0" y="6000.0" linkRefId="4605_4606" isBlocking="false"/>
		<stopFacility id="2970" x="4500.0" y="7000.0" linkRefId="4615_4616" isBlocking="false"/>
		<stopFacility id="2980" x="4500.0" y="8000.0" linkRefId="4625_4626" isBlocking="false"/>
		<stopFacility id="2990" x="4500.0" y="9000.0" linkRefId="4635_4636" isBlocking="false"/>
		<stopFacility id="30" x="500.0" y="3000.0" linkRefId="535_536" isBlocking="false"/>
		<stopFacility id="300" x="1500.0" y="10000.0" linkRefId="1615_1614" isBlocking="false"/>
		<stopFacility id="3000" x="5500.0" y="10000.0" linkRefId="5655_5654" isBlocking="false"/>
		<stopFacility id="3010" x="5500.0" y="9000.0" linkRefId="5645_5644" isBlocking="false"/>
		<stopFacility id="3020" x="5500.0" y="8000.0" linkRefId="5635_5634" isBlocking="false"/>
		<stopFacility id="3030" x="5500.0" y="7000.0" linkRefId="5625_5624" isBlocking="false"/>
		<stopFacility id="3040" x="5500.0" y="6000.0" linkRefId="5615_5614" isBlocking="false"/>
		<stopFacility id="3050" x="5500.0" y="5000.0" linkRefId="5605_5604" isBlocking="false"/>
		<stopFacility id="3060" x="5500.0" y="4000.0" linkRefId="5595_5594" isBlocking="false"/>
		<stopFacility id="3070" x="5500.0" y="3000.0" linkRefId="5585_5584" isBlocking="false"/>
		<stopFacility id="3080" x="5500.0" y="2000.0" linkRefId="5575_5574" isBlocking="false"/>
		<stopFacility id="3090" x="5500.0" y="1000.0" linkRefId="5565_5564" isBlocking="false"/>
		<stopFacility id="310" x="1500.0" y="9000.0" linkRefId="1605_1604" isBlocking="false"/>
		<stopFacility id="3100" x="5500.0" y="0.0" linkRefId="5555_5556" isBlocking="false"/>
		<stopFacility id="3110" x="5500.0" y="1000.0" linkRefId="5565_5566" isBlocking="false"/>
		<stopFacility id="3120" x="5500.0" y="2000.0" linkRefId="5575_5576" isBlocking="false"/>
		<stopFacility id="3130" x="5500.0" y="3000.0" linkRefId="5585_5586" isBlocking="false"/>
		<stopFacility id="3140" x="5500.0" y="4000.0" linkRefId="5595_5596" isBlocking="false"/>
		<stopFacility id="3150" x="5500.0" y="5000.0" linkRefId="5605_5606" isBlocking="false"/>
		<stopFacility id="3160" x="5500.0" y="6000.0" linkRefId="5615_5616" isBlocking="false"/>
		<stopFacility id="3170" x="5500.0" y="7000.0" linkRefId="5625_5626" isBlocking="false"/>
		<stopFacility id="3180" x="5500.0" y="8000.0" linkRefId="5635_5636" isBlocking="false"/>
		<stopFacility id="3190" x="5500.0" y="9000.0" linkRefId="5645_5646" isBlocking="false"/>
		<stopFacility id="320" x="1500.0" y="8000.0" linkRefId="1595_1594" isBlocking="false"/>
		<stopFacility id="3200" x="6500.0" y="10000.0" linkRefId="6665_6664" isBlocking="false"/>
		<stopFacility id="3210" x="6500.0" y="9000.0" linkRefId="6655_6654" isBlocking="false"/>
		<stopFacility id="3220" x="6500.0" y="8000.0" linkRefId="6645_6644" isBlocking="false"/>
		<stopFacility id="3230" x="6500.0" y="7000.0" linkRefId="6635_6634" isBlocking="false"/>
		<stopFacility id="3240" x="6500.0" y="6000.0" linkRefId="6625_6624" isBlocking="false"/>
		<stopFacility id="3250" x="6500.0" y="5000.0" linkRefId="6615_6614" isBlocking="false"/>
		<stopFacility id="3260" x="6500.0" y="4000.0" linkRefId="6605_6604" isBlocking="false"/>
		<stopFacility id="3270" x="6500.0" y="3000.0" linkRefId="6595_6594" isBlocking="false"/>
		<stopFacility id="3280" x="6500.0" y="2000.0" linkRefId="6585_6584" isBlocking="false"/>
		<stopFacility id="3290" x="6500.0" y="1000.0" linkRefId="6575_6574" isBlocking="false"/>
		<stopFacility id="330" x="1500.0" y="7000.0" linkRefId="1585_1584" isBlocking="false"/>
		<stopFacility id="3300" x="6500.0" y="0.0" linkRefId="6565_6566" isBlocking="false"/>
		<stopFacility id="3310" x="6500.0" y="1000.0" linkRefId="6575_6576" isBlocking="false"/>
		<stopFacility id="3320" x="6500.0" y="2000.0" linkRefId="6585_6586" isBlocking="false"/>
		<stopFacility id="3330" x="6500.0" y="3000.0" linkRefId="6595_6596" isBlocking="false"/>
		<stopFacility id="3340" x="6500.0" y="4000.0" linkRefId="6605_6606" isBlocking="false"/>
		<stopFacility id="3350" x="6500.0" y="5000.0" linkRefId="6615_6616" isBlocking="false"/>
		<stopFacility id="3360" x="6500.0" y="6000.0" linkRefId="6625_6626" isBlocking="false"/>
		<stopFacility id="3370" x="6500.0" y="7000.0" linkRefId="6635_6636" isBlocking="false"/>
		<stopFacility id="3380" x="6500.0" y="8000.0" linkRefId="6645_6646" isBlocking="false"/>
		<stopFacility id="3390" x="6500.0" y="9000.0" linkRefId="6655_6656" isBlocking="false"/>
		<stopFacility id="340" x="1500.0" y="6000.0" linkRefId="1575_1574" isBlocking="false"/>
		<stopFacility id="3400" x="7500.0" y="10000.0" linkRefId="7675_7674" isBlocking="false"/>
		<stopFacility id="3410" x="7500.0" y="9000.0" linkRefId="7665_7664" isBlocking="false"/>
		<stopFacility id="3420" x="7500.0" y="8000.0" linkRefId="7655_7654" isBlocking="false"/>
		<stopFacility id="3430" x="7500.0" y="7000.0" linkRefId="7645_7644" isBlocking="false"/>
		<stopFacility id="3440" x="7500.0" y="6000.0" linkRefId="7635_7634" isBlocking="false"/>
		<stopFacility id="3450" x="7500.0" y="5000.0" linkRefId="7625_7624" isBlocking="false"/>
		<stopFacility id="3460" x="7500.0" y="4000.0" linkRefId="7615_7614" isBlocking="false"/>
		<stopFacility id="3470" x="7500.0" y="3000.0" linkRefId="7605_7604" isBlocking="false"/>
		<stopFacility id="3480" x="7500.0" y="2000.0" linkRefId="7595_7594" isBlocking="false"/>
		<stopFacility id="3490" x="7500.0" y="1000.0" linkRefId="7585_7584" isBlocking="false"/>
		<stopFacility id="350" x="1500.0" y="5000.0" linkRefId="1565_1564" isBlocking="false"/>
		<stopFacility id="3500" x="7500.0" y="0.0" linkRefId="7575_7576" isBlocking="false"/>
		<stopFacility id="3510" x="7500.0" y="1000.0" linkRefId="7585_7586" isBlocking="false"/>
		<stopFacility id="3520" x="7500.0" y="2000.0" linkRefId="7595_7596" isBlocking="false"/>
		<stopFacility id="3530" x="7500.0" y="3000.0" linkRefId="7605_7606" isBlocking="false"/>
		<stopFacility id="3540" x="7500.0" y="4000.0" linkRefId="7615_7616" isBlocking="false"/>
		<stopFacility id="3550" x="7500.0" y="5000.0" linkRefId="7625_7626" isBlocking="false"/>
		<stopFacility id="3560" x="7500.0" y="6000.0" linkRefId="7635_7636" isBlocking="false"/>
		<stopFacility id="3570" x="7500.0" y="7000.0" linkRefId="7645_7646" isBlocking="false"/>
		<stopFacility id="3580" x="7500.0" y="8000.0" linkRefId="7655_7656" isBlocking="false"/>
		<stopFacility id="3590" x="7500.0" y="9000.0" linkRefId="7665_7666" isBlocking="false"/>
		<stopFacility id="360" x="1500.0" y="4000.0" linkRefId="1555_1554" isBlocking="false"/>
		<stopFacility id="3600" x="8500.0" y="10000.0" linkRefId="8685_8684" isBlocking="false"/>
		<stopFacility id="3610" x="8500.0" y="9000.0" linkRefId="8675_8674" isBlocking="false"/>
		<stopFacility id="3620" x="8500.0" y="8000.0" linkRefId="8665_8664" isBlocking="false"/>
		<stopFacility id="3630" x="8500.0" y="7000.0" linkRefId="8655_8654" isBlocking="false"/>
		<stopFacility id="3640" x="8500.0" y="6000.0" linkRefId="8645_8644" isBlocking="false"/>
		<stopFacility id="3650" x="8500.0" y="5000.0" linkRefId="8635_8634" isBlocking="false"/>
		<stopFacility id="3660" x="8500.0" y="4000.0" linkRefId="8625_8624" isBlocking="false"/>
		<stopFacility id="3670" x="8500.0" y="3000.0" linkRefId="8615_8614" isBlocking="false"/>
		<stopFacility id="3680" x="8500.0" y="2000.0" linkRefId="8605_8604" isBlocking="false"/>
		<stopFacility id="3690" x="8500.0" y="1000.0" linkRefId="8595_8594" isBlocking="false"/>
		<stopFacility id="370" x="1500.0" y="3000.0" linkRefId="1545_1544" isBlocking="false"/>
		<stopFacility id="3700" x="8500.0" y="0.0" linkRefId="8585_8586" isBlocking="false"/>
		<stopFacility id="3710" x="8500.0" y="1000.0" linkRefId="8595_8596" isBlocking="false"/>
		<stopFacility id="3720" x="8500.0" y="2000.0" linkRefId="8605_8606" isBlocking="false"/>
		<stopFacility id="3730" x="8500.0" y="3000.0" linkRefId="8615_8616" isBlocking="false"/>
		<stopFacility id="3740" x="8500.0" y="4000.0" linkRefId="8625_8626" isBlocking="false"/>
		<stopFacility id="3750" x="8500.0" y="5000.0" linkRefId="8635_8636" isBlocking="false"/>
		<stopFacility id="3760" x="8500.0" y="6000.0" linkRefId="8645_8646" isBlocking="false"/>
		<stopFacility id="3770" x="8500.0" y="7000.0" linkRefId="8655_8656" isBlocking="false"/>
		<stopFacility id="3780" x="8500.0" y="8000.0" linkRefId="8665_8666" isBlocking="false"/>
		<stopFacility id="3790" x="8500.0" y="9000.0" linkRefId="8675_8676" isBlocking="false"/>
		<stopFacility id="380" x="1500.0" y="2000.0" linkRefId="1535_1534" isBlocking="false"/>
		<stopFacility id="3800" x="9500.0" y="10000.0" linkRefId="9695_9694" isBlocking="false"/>
		<stopFacility id="3810" x="9500.0" y="9000.0" linkRefId="9685_9684" isBlocking="false"/>
		<stopFacility id="3820" x="9500.0" y="8000.0" linkRefId="9675_9674" isBlocking="false"/>
		<stopFacility id="3830" x="9500.0" y="7000.0" linkRefId="9665_9664" isBlocking="false"/>
		<stopFacility id="3840" x="9500.0" y="6000.0" linkRefId="9655_9654" isBlocking="false"/>
		<stopFacility id="3850" x="9500.0" y="5000.0" linkRefId="9645_9644" isBlocking="false"/>
		<stopFacility id="3860" x="9500.0" y="4000.0" linkRefId="9635_9634" isBlocking="false"/>
		<stopFacility id="3870" x="9500.0" y="3000.0" linkRefId="9625_9624" isBlocking="false"/>
		<stopFacility id="3880" x="9500.0" y="2000.0" linkRefId="9615_9614" isBlocking="false"/>
		<stopFacility id="3890" x="9500.0" y="1000.0" linkRefId="9605_9604" isBlocking="false"/>
		<stopFacility id="390" x="1500.0" y="1000.0" linkRefId="1525_1524" isBlocking="false"/>
		<stopFacility id="3900" x="9500.0" y="0.0" linkRefId="9595_9596" isBlocking="false"/>
		<stopFacility id="3910" x="9500.0" y="1000.0" linkRefId="9605_9606" isBlocking="false"/>
		<stopFacility id="3920" x="9500.0" y="2000.0" linkRefId="9615_9616" isBlocking="false"/>
		<stopFacility id="3930" x="9500.0" y="3000.0" linkRefId="9625_9626" isBlocking="false"/>
		<stopFacility id="3940" x="9500.0" y="4000.0" linkRefId="9635_9636" isBlocking="false"/>