<?xml version="1.0" encoding="UTF-8"?>

<vehicleDefinitions xmlns="http://www.matsim.org/files/dtd" xmlns:xsi="http://www.w3.org/2001/XMLSchema-instance" xsi:schemaLocation="http://www.matsim.org/files/dtd http://www.matsim.org/files/dtd/vehicleDefinitions_v2.0.xsd">

	<vehicleType id="1">

		<description>train</description>
		<capacity seats="10" standingRoomInPersons="10">

		</capacity>
		<length meter="50.0"/>
		<width meter="1.0"/>
		<costInformation>

		</costInformation>
		<passengerCarEquivalents pce="1.0"/>
		<networkMode networkMode="train"/>
		<flowEfficiencyFactor factor="1.0"/>
	</vehicleType>

	<vehicle id="tr_0_0" type="1"/>
	<vehicle id="tr_0_1" type="1"/>
	<vehicle id="tr_0_10" type="1"/>
	<vehicle id="tr_0_11" type="1"/>
	<vehicle id="tr_0_12" type="1"/>
	<vehicle id="tr_0_13" type="1"/>
	<vehicle id="tr_0_14" type="1"/>
	<vehicle id="tr_0_15" type="1"/>
	<vehicle id="tr_0_16" type="1"/>
	<vehicle id="tr_0_17" type="1"/>
	<vehicle id="tr_0_18" type="1"/>
	<vehicle id="tr_0_19" type="1"/>
	<vehicle id="tr_0_2" type="1"/>
	<vehicle id="tr_0_20" type="1"/>
	<vehicle id="tr_0_21" type="1"/>
	<vehicle id="tr_0_22" type="1"/>
	<vehicle id="tr_0_23" type="1"/>
	<vehicle id="tr_0_24" type="1"/>
	<vehicle id="tr_0_25" type="1"/>
	<vehicle id="tr_0_26" type="1"/>
	<vehicle id="tr_0_27" type="1"/>
	<vehicle id="tr_0_3" type="1"/>
	<vehicle id="tr_0_4" type="1"/>
	<vehicle id="tr_0_5" type="1"/>
	<vehicle id="tr_0_6" type="1"/>
	<vehicle id="tr_0_7" type="1"/>
	<vehicle id="tr_0_8" type="1"/>
	<vehicle id="tr_0_9" type="1"/>
	<vehicle id="tr_10_0" type="1"/>
	<vehicle id="tr_10_1" type="1"/>
	<vehicle id="tr_10_10" type="1"/>
	<vehicle id="tr_10_11" type="1"/>
	<vehicle id="tr_10_12" type="1"/>
	<vehicle id="tr_10_13" type="1"/>
	<vehicle id="tr_10_14" type="1"/>
	<vehicle id="tr_10_15" type="1"/>
	<vehicle id="tr_10_16" type="1"/>
	<vehicle id="tr_10_17" type="1"/>
	<vehicle id="tr_10_18" type="1"/>
	<vehicle id="tr_10_19" type="1"/>
	<vehicle id="tr_10_2" type="1"/>
	<vehicle id="tr_10_20" type="1"/>
	<vehicle id="tr_10_21" type="1"/>
	<vehicle id="tr_10_22" type="1"/>
	<vehicle id="tr_10_23" type="1"/>
	<vehicle id="tr_10_24" type="1"/>
	<vehicle id="tr_10_25" type="1"/>
	<vehicle id="tr_10_26" type="1"/>
	<vehicle id="tr_10_27" type="1"/>
	<vehicle id="tr_10_3" type="1"/>
	<vehicle id="tr_10_4" type="1"/>
	<vehicle id="tr_10_5" type="1"/>
	<vehicle id="tr_10_6" type="1"/>
	<vehicle id="tr_10_7" type="1"/>
	<vehicle id="tr_10_8" type="1"/>
	<vehicle id="tr_10_9" type="1"/>
	<vehicle id="tr_11_0" type="1"/>
	<vehicle id="tr_11_1" type="1"/>
	<vehicle id="tr_11_10" type="1"/>
	<vehicle id="tr_11_11" type="1"/>
	<vehicle id="tr_11_12" type="1"/>
	<vehicle id="tr_11_13" type="1"/>
	<vehicle id="tr_11_14" type="1"/>
	<vehicle id="tr_11_15" type="1"/>
	<vehicle id="tr_11_16" type="1"/>
	<vehicle id="tr_11_17" type="1"/>
	<vehicle id="tr_11_18" type="1"/>
	<vehicle id="tr_11_19" type="1"/>
	<vehicle id="tr_11_2" type="1"/>
	<vehicle id="tr_11_20" type="1"/>
	<vehicle id="tr_11_21" type="1"/>
	<vehicle id="tr_11_22" type="1"/>
	<vehicle id="tr_11_23" type="1"/>
	<vehicle id="tr_11_24" type="1"/>
	<vehicle id="tr_11_25" type="1"/>
	<vehicle id="tr_11_26" type="1"/>
	<vehicle id="tr_11_27" type="1"/>
	<vehicle id="tr_11_3" type="1"/>
	<vehicle id="tr_11_4" type="1"/>
	<vehicle id="tr_11_5" type="1"/>
	<vehicle id="tr_11_6" type="1"/>
	<vehicle id="tr_11_7" type="1"/>
	<vehicle id="tr_11_8" type="1"/>
	<vehicle id="tr_11_9" type="1"/>
	<vehicle id="tr_12_0" type="1"/>
	<vehicle id="tr_12_1" type="1"/>
	<vehicle id="tr_12_10" type="1"/>
	<vehicle id="tr_12_11" type="1"/>
	<vehicle id="tr_12_12" type="1"/>
	<vehicle id="tr_12_13" type="1"/>
	<vehicle id="tr_12_14" type="1"/>
	<vehicle id="tr_12_15" type="1"/>
	<vehicle id="tr_12_16" type="1"/>
	<vehicle id="tr_12_17" type="1"/>
	<vehicle id="tr_12_18" type="1"/>
	<vehicle id="tr_12_19" type="1"/>
	<vehicle id="tr_12_2" type="1"/>
	<vehicle id="tr_12_20" type="1"/>
	<vehicle id="tr_12_21" type="1"/>
	<vehicle id="tr_12_22" type="1"/>
	<vehicle id="tr_12_23" type="1"/>
	<vehicle id="tr_12_24" type="1"/>
	<vehicle id="tr_12_25" type="1"/>
	<vehicle id="tr_12_26" type="1"/>
	<vehicle id="tr_12_27" type="1"/>
	<vehicle id="tr_12_3" type="1"/>
	<vehicle id="tr_12_4" type="1"/>
	<vehicle id="tr_12_5" type="1"/>
	<vehicle id="tr_12_6" type="1"/>
	<vehicle id="tr_12_7" type="1"/>
	<vehicle id="tr_12_8" type="1"/>
	<vehicle id="tr_12_9" type="1"/>
	<vehicle id="tr_13_0" type="1"/>
	<vehicle id="tr_13_1" type="1"/>
	<vehicle id="tr_13_10" type="1"/>
	<vehicle id="tr_13_11" type="1"/>
	<vehicle id="tr_13_12" type="1"/>
	<vehicle id="tr_13_13" type="1"/>
	<vehicle id="tr_13_14" type="1"/>
	<vehicle id="tr_13_15" type="1"/>
	<vehicle id="tr_13_16" type="1"/>
	<vehicle id="tr_13_17" type="1"/>
	<vehicle id="tr_13_18" type="1"/>
	<vehicle id="tr_13_19" type="1"/>
	<vehicle id="tr_13_2" type="1"/>
	<vehicle id="tr_13_20" type="1"/>
	<vehicle id="tr_13_21" type="1"/>
	<vehicle id="tr_13_22" type="1"/>
	<vehicle id="tr_13_23" type="1"/>
	<vehicle id="tr_13_24" type="1"/>
	<vehicle id="tr_13_25" type="1"/>
	<vehicle id="tr_13_26" type="1"/>
	<vehicle id="tr_13_27" type="1"/>
	<vehicle id="tr_13_3" type="1"/>
	<vehicle id="tr_13_4" type="1"/>
	<vehicle id="tr_13_5" type="1"/>
	<vehicle id="tr_13_6" type="1"/>
	<vehicle id="tr_13_7" type="1"/>
	<vehicle id="tr_13_8" type="1"/>
	<vehicle id="tr_13_9" type="1"/>
	<vehicle id="tr_14_0" type="1"/>
	<vehicle id="tr_14_1" type="1"/>
	<vehicle id="tr_14_10" type="1"/>
	<vehicle id="tr_14_11" type="1"/>
	<vehicle id="tr_14_12" type="1"/>
	<vehicle id="tr_14_13" type="1"/>
	<vehicle id="tr_14_14" type="1"/>
	<vehicle id="tr_14_15" type="1"/>
	<vehicle id="tr_14_16" type="1"/>
	<vehicle id="tr_14_17" type="1"/>
	<vehicle id="tr_14_18" type="1"/>
	<vehicle id="tr_14_19" type="1"/>
	<vehicle id="tr_14_2" type="1"/>
	<vehicle id="tr_14_20" type="1"/>
	<vehicle id="tr_14_21" type="1"/>
	<vehicle id="tr_14_22" type="1"/>
	<vehicle id="tr_14_23" type="1"/>
	<vehicle id="tr_14_24" type="1"/>
	<vehicle id="tr_14_25" type="1"/>
	<vehicle id="tr_14_26" type="1"/>
	<vehicle id="tr_14_27" type="1"/>
	<vehicle id="tr_14_3" type="1"/>
	<vehicle id="tr_14_4" type="1"/>
	<vehicle id="tr_14_5" type="1"/>
	<vehicle id="tr_14_6" type="1"/>
	<vehicle id="tr_14_7" type="1"/>
	<vehicle id="tr_14_8" type="1"/>
	<vehicle id="tr_14_9" type="1"/>
	<vehicle id="tr_15_0" type="1"/>
	<vehicle id="tr_15_1" type="1"/>
	<vehicle id="tr_15_10" type="1"/>
	<vehicle id="tr_15_11" type="1"/>
	<vehicle id="tr_15_12" type="1"/>
	<vehicle id="tr_15_13" type="1"/>
	<vehicle id="tr_15_14" type="1"/>
	<vehicle id="tr_15_15" type="1"/>
	<vehicle id="tr_15_16" type="1"/>
	<vehicle id="tr_15_17" type="1"/>
	<vehicle id="tr_15_18" type="1"/>
	<vehicle id="tr_15_19" type="1"/>
	<vehicle id="tr_15_2" type="1"/>
	<vehicle id="tr_15_20" type="1"/>
	<vehicle id="tr_15_21" type="1"/>
	<vehicle id="tr_15_22" type="1"/>
	<vehicle id="tr_15_23" type="1"/>
	<vehicle id="tr_15_24" type="1"/>
	<vehicle id="tr_15_25" type="1"/>
	<vehicle id="tr_15_26" type="1"/>
	<vehicle id="tr_15_27" type="1"/>
	<vehicle id="tr_15_3" type="1"/>
	<vehicle id="tr_15_4" type="1"/>
	<vehicle id="tr_15_5" type="1"/>
	<vehicle id="tr_15_6" type="1"/>
	<vehicle id="tr_15_7" type="1"/>
	<vehicle id="tr_15_8" type="1"/>
	<vehicle id="tr_15_9" type="1"/>
	<vehicle id="tr_16_0" type="1"/>
	<vehicle id="tr_16_1" type="1"/>
	<vehicle id="tr_16_10" type="1"/>
	<vehicle id="tr_16_11" type="1"/>
	<vehicle id="tr_16_12" type="1"/>
	<vehicle id="tr_16_13" type="1"/>
	<vehicle id="tr_16_14" type="1"/>
	<vehicle id="tr_16_15" type="1"/>
	<vehicle id="tr_16_16" type="1"/>
	<vehicle id="tr_16_17" type="1"/>
	<vehicle id="tr_16_18" type="1"/>
	<vehicle id="tr_16_19" type="1"/>
	<vehicle id="tr_16_2" type="1"/>
	<vehicle id="tr_16_20" type="1"/>
	<vehicle id="tr_16_21" type="1"/>
	<vehicle id="tr_16_22" type="1"/>
	<vehicle id="tr_16_23" type="1"/>
	<vehicle id="tr_16_24" type="1"/>
	<vehicle id="tr_16_25" type="1"/>
	<vehicle id="tr_16_26" type="1"/>
	<vehicle id="tr_16_27" type="1"/>
	<vehicle id="tr_16_3" type="1"/>
	<vehicle id="tr_16_4" type="1"/>
	<vehicle id="tr_16_5" type="1"/>
	<vehicle id="tr_16_6" type="1"/>
	<vehicle id="tr_16_7" type="1"/>
	<vehicle id="tr_16_8" type="1"/>
	<vehicle id="tr_16_9" type="1"/>
	<vehicle id="tr_17_0" type="1"/>
	<vehicle id="tr_17_1" type="1"/>
	<vehicle id="tr_17_10" type="1"/>
	<vehicle id="tr_17_11" type="1"/>
	<vehicle id="tr_17_12" type="1"/>
	<vehicle id="tr_17_13" type="1"/>
	<vehicle id="tr_17_14" type="1"/>
	<vehicle id="tr_17_15" type="1"/>
	<vehicle id="tr_17_16" type="1"/>
	<vehicle id="tr_17_17" type="1"/>
	<vehicle id="tr_17_18" type="1"/>
	<vehicle id="tr_17_19" type="1"/>
	<vehicle id="tr_17_2" type="1"/>
	<vehicle id="tr_17_20" type="1"/>
	<vehicle id="tr_17_21" type="1"/>
	<vehicle id="tr_17_22" type="1"/>
	<vehicle id="tr_17_23" type="1"/>
	<vehicle id="tr_17_24" type="1"/>
	<vehicle id="tr_17_25" type="1"/>
	<vehicle id="tr_17_26" type="1"/>
	<vehicle id="tr_17_27" type="1"/>
	<vehicle id="tr_17_3" type="1"/>
	<vehicle id="tr_17_4" type="1"/>
	<vehicle id="tr_17_5" type="1"/>
	<vehicle id="tr_17_6" type="1"/>
	<vehicle id="tr_17_7" type="1"/>
	<vehicle id="tr_17_8" type="1"/>
	<vehicle id="tr_17_9" type="1"/>
	<vehicle id="tr_18_0" type="1"/>
	<vehicle id="tr_18_1" type="1"/>
	<vehicle id="tr_18_10" type="1"/>
	<vehicle id="tr_18_11" type="1"/>
	<vehicle id="tr_18_12" type="1"/>
	<vehicle id="tr_18_13" type="1"/>
	<vehicle id="tr_18_14" type="1"/>
	<vehicle id="tr_18_15" type="1"/>
	<vehicle id="tr_18_16" type="1"/>
	<vehicle id="tr_18_17" type="1"/>
	<vehicle id="tr_18_18" type="1"/>
	<vehicle id="tr_18_19" type="1"/>
	<vehicle id="tr_18_2" type="1"/>
	<vehicle id="tr_18_20" type="1"/>
	<vehicle id="tr_18_21" type="1"/>
	<vehicle id="tr_18_22" type="1"/>
	<vehicle id="tr_18_23" type="1"/>
	<vehicle id="tr_18_24" type="1"/>
	<vehicle id="tr_18_25" type="1"/>
	<vehicle id="tr_18_26" type="1"/>
	<vehicle id="tr_18_27" type="1"/>
	<vehicle id="tr_18_3" type="1"/>
	<vehicle id="tr_18_4" type="1"/>
	<vehicle id="tr_18_5" type="1"/>
	<vehicle id="tr_18_6" type="1"/>
	<vehicle id="tr_18_7" type="1"/>
	<vehicle id="tr_18_8" type="1"/>
	<vehicle id="tr_18_9" type="1"/>
	<vehicle id="tr_19_0" type="1"/>
	<vehicle id="tr_19_1" type="1"/>
	<vehicle id="tr_19_10" type="1"/>
	<vehicle id="tr_19_11" type="1"/>
	<vehicle id="tr_19_12" type="1"/>
	<vehicle id="tr_19_13" type="1"/>
	<vehicle id="tr_19_14" type="1"/>
	<vehicle id="tr_19_15" type="1"/>
	<vehicle id="tr_19_16" type="1"/>
	<vehicle id="tr_19_17" type="1"/>
	<vehicle id="tr_19_18" type="1"/>
	<vehicle id="tr_19_19" type="1"/>
	<vehicle id="tr_19_2" type="1"/>
	<vehicle id="tr_19_20" type="1"/>
	<vehicle id="tr_19_21" type="1"/>
	<vehicle id="tr_19_22" type="1"/>
	<vehicle id="tr_19_23" type="1"/>
	<vehicle id="tr_19_24" type="1"/>
	<vehicle id="tr_19_25" type="1"/>
	<vehicle id="tr_19_26" type="1"/>
	<vehicle id="tr_19_27" type="1"/>
	<vehicle id="tr_19_3" type="1"/>
	<vehicle id="tr_19_4" type="1"/>
	<vehicle id="tr_19_5" type="1"/>
	<vehicle id="tr_19_6" type="1"/>
	<vehicle id="tr_19_7" type="1"/>
	<vehicle id="tr_19_8" type="1"/>
	<vehicle id="tr_19_9" type="1"/>
	<vehicle id="tr_1_0" type="1"/>
	<vehicle id="tr_1_1" type="1"/>
	<vehicle id="tr_1_10" type="1"/>
	<vehicle id="tr_1_11" type="1"/>
	<vehicle id="tr_1_12" type="1"/>
	<vehicle id="tr_1_13" type="1"/>
	<vehicle id="tr_1_14" type="1"/>
	<vehicle id="tr_1_15" type="1"/>
	<vehicle id="tr_1_16" type="1"/>
	<vehicle id="tr_1_17" type="1"/>
	<vehicle id="tr_1_18" type="1"/>
	<vehicle id="tr_1_19" type="1"/>
	<vehicle id="tr_1_2" type="1"/>
	<vehicle id="tr_1_20" type="1"/>
	<vehicle id="tr_1_21" type="1"/>
	<vehicle id="tr_1_22" type="1"/>
	<vehicle id="tr_1_23" type="1"/>
	<vehicle id="tr_1_24" type="1"/>
	<vehicle id="tr_1_25" type="1"/>
	<vehicle id="tr_1_26" type="1"/>
	<vehicle id="tr_1_27" type="1"/>
	<vehicle id="tr_1_3" type="1"/>
	<vehicle id="tr_1_4" type="1"/>
	<vehicle id="tr_1_5" type="1"/>
	<vehicle id="tr_1_6" type="1"/>
	<vehicle id="tr_1_7" type="1"/>
	<vehicle id="tr_1_8" type="1"/>
	<vehicle id="tr_1_9" type="1"/>
	<vehicle id="tr_20_0" type="1"/>
	<vehicle id="tr_20_1" type="1"/>
	<vehicle id="tr_20_10" type="1"/>
	<vehicle id="tr_20_11" type="1"/>
	<vehicle id="tr_20_12" type="1"/>
	<vehicle id="tr_20_13" type="1"/>
	<vehicle id="tr_20_14" type="1"/>
	<vehicle id="tr_20_15" type="1"/>
	<vehicle id="tr_20_16" type="1"/>
	<vehicle id="tr_20_17" type="1"/>
	<vehicle id="tr_20_18" type="1"/>
	<vehicle id="tr_20_19" type="1"/>
	<vehicle id="tr_20_2" type="1"/>
	<vehicle id="tr_20_20" type="1"/>
	<vehicle id="tr_20_21" type="1"/>
	<vehicle id="tr_20_22" type="1"/>
	<vehicle id="tr_20_23" type="1"/>
	<vehicle id="tr_20_24" type="1"/>
	<vehicle id="tr_20_25" type="1"/>
	<vehicle id="tr_20_26" type="1"/>
	<vehicle id="tr_20_27" type="1"/>
	<vehicle id="tr_20_3" type="1"/>
	<vehicle id="tr_20_4" type="1"/>
	<vehicle id="tr_20_5" type="1"/>
	<vehicle id="tr_20_6" type="1"/>
	<vehicle id="tr_20_7" type="1"/>
	<vehicle id="tr_20_8" type="1"/>
	<vehicle id="tr_20_9" type="1"/>
	<vehicle id="tr_21_0" type="1"/>
	<vehicle id="tr_21_1" type="1"/>
	<vehicle id="tr_21_10" type="1"/>
	<vehicle id="tr_21_11" type="1"/>
	<vehicle id="tr_21_12" type="1"/>
	<vehicle id="tr_21_13" type="1"/>
	<vehicle id="tr_21_14" type="1"/>
	<vehicle id="tr_21_15" type="1"/>
	<vehicle id="tr_21_16" type="1"/>
	<vehicle id="tr_21_17" type="1"/>
	<vehicle id="tr_21_18" type="1"/>
	<vehicle id="tr_21_19" type="1"/>
	<vehicle id="tr_21_2" type="1"/>
	<vehicle id="tr_21_20" type="1"/>
	<vehicle id="tr_21_21" type="1"/>
	<vehicle id="tr_21_22" type="1"/>
	<vehicle id="tr_21_23" type="1"/>
	<vehicle id="tr_21_24" type="1"/>
	<vehicle id="tr_21_25" type="1"/>
	<vehicle id="tr_21_26" type="1"/>
	<vehicle id="tr_21_27" type="1"/>
	<vehicle id="tr_21_3" type="1"/>
	<vehicle id="tr_21_4" type="1"/>
	<vehicle id="tr_21_5" type="1"/>
	<vehicle id="tr_21_6" type="1"/>
	<vehicle id="tr_21_7" type="1"/>
	<vehicle id="tr_21_8" type="1"/>
	<vehicle id="tr_21_9" type="1"/>
	<vehicle id="tr_22_0" type="1"/>
	<vehicle id="tr_22_1" type="1"/>
	<vehicle id="tr_22_10" type="1"/>
	<vehicle id="tr_22_11" type="1"/>
	<vehicle id="tr_22_12" type="1"/>
	<vehicle id="tr_22_13" type="1"/>
	<vehicle id="tr_22_14" type="1"/>
	<vehicle id="tr_22_15" type="1"/>
	<vehicle id="tr_22_16" type="1"/>
	<vehicle id="tr_22_17" type="1"/>
	<vehicle id="tr_22_18" type="1"/>
	<vehicle id="tr_22_19" type="1"/>
	<vehicle id="tr_22_2" type="1"/>
	<vehicle id="tr_22_20" type="1"/>
	<vehicle id="tr_22_21" type="1"/>
	<vehicle id="tr_22_22" type="1"/>
	<vehicle id="tr_22_23" type="1"/>
	<vehicle id="tr_22_24" type="1"/>
	<vehicle id="tr_22_25" type="1"/>
	<vehicle id="tr_22_26" type="1"/>
	<vehicle id="tr_22_27" type="1"/>
	<vehicle id="tr_22_3" type="1"/>
	<vehicle id="tr_22_4" type="1"/>
	<vehicle id="tr_22_5" type="1"/>
	<vehicle id="tr_22_6" type="1"/>
	<vehicle id="tr_22_7" type="1"/>
	<vehicle id="tr_22_8" type="1"/>
	<vehicle id="tr_22_9" type="1"/>
	<vehicle id="tr_23_0" type="1"/>
	<vehicle id="tr_23_1" type="1"/>
	<vehicle id="tr_23_10" type="1"/>
	<vehicle id="tr_23_11" type="1"/>
	<vehicle id="tr_23_12" type="1"/>
	<vehicle id="tr_23_13" type="1"/>
	<vehicle id="tr_23_14" type="1"/>
	<vehicle id="tr_23_15" type="1"/>
	<vehicle id="tr_23_16" type="1"/>
	<vehicle id="tr_23_17" type="1"/>
	<vehicle id="tr_23_18" type="1"/>
	<vehicle id="tr_23_19" type="1"/>
	<vehicle id="tr_23_2" type="1"/>
	<vehicle id="tr_23_20" type="1"/>
	<vehicle id="tr_23_21" type="1"/>
	<vehicle id="tr_23_22" type="1"/>
	<vehicle id="tr_23_23" type="1"/>
	<vehicle id="tr_23_24" type="1"/>
	<vehicle id="tr_23_25" type="1"/>
	<vehicle id="tr_23_26" type="1"/>
	<vehicle id="tr_23_27" type="1"/>
	<vehicle id="tr_23_3" type="1"/>
	<vehicle id="tr_23_4" type="1"/>
	<vehicle id="tr_23_5" type="1"/>
	<vehicle id="tr_23_6" type="1"/>
	<vehicle id="tr_23_7" type="1"/>
	<vehicle id="tr_23_8" type="1"/>
	<vehicle id="tr_23_9" type="1"/>
	<vehicle id="tr_24_0" type="1"/>
	<vehicle id="tr_24_1" type="1"/>
	<vehicle id="tr_24_10" type="1"/>
	<vehicle id="tr_24_11" type="1"/>
	<vehicle id="tr_24_12" type="1"/>
	<vehicle id="tr_24_13" type="1"/>
	<vehicle id="tr_24_14" type="1"/>
	<vehicle id="tr_24_15" type="1"/>
	<vehicle id="tr_24_16" type="1"/>
	<vehicle id="tr_24_17" type="1"/>
	<vehicle id="tr_24_18" type="1"/>
	<vehicle id="tr_24_19" type="1"/>
	<vehicle id="tr_24_2" type="1"/>
	<vehicle id="tr_24_20" type="1"/>
	<vehicle id="tr_24_21" type="1"/>
	<vehicle id="tr_24_22" type="1"/>
	<vehicle id="tr_24_23" type="1"/>
	<vehicle id="tr_24_24" type="1"/>
	<vehicle id="tr_24_25" type="1"/>
	<vehicle id="tr_24_26" type="1"/>
	<vehicle id="tr_24_27" type="1"/>
	<vehicle id="tr_24_3" type="1"/>
	<vehicle id="tr_24_4" type="1"/>
	<vehicle id="tr_24_5" type="1"/>
	<vehicle id="tr_24_6" type="1"/>
	<vehicle id="tr_24_7" type="1"/>
	<vehicle id="tr_24_8" type="1"/>
	<vehicle id="tr_24_9" type="1"/>
	<vehicle id="tr_25_0" type="1"/>
	<vehicle id="tr_25_1" type="1"/>
	<vehicle id="tr_25_10" type="1"/>
	<vehicle id="tr_25_11" type="1"/>
	<vehicle id="tr_25_12" type="1"/>
	<vehicle id="tr_25_13" type="1"/>
	<vehicle id="tr_25_14" type="1"/>
	<vehicle id="tr_25_15" type="1"/>
	<vehicle id="tr_25_16" type="1"/>
	<vehicle id="tr_25_17" type="1"/>
	<vehicle id="tr_25_18" type="1"/>
	<vehicle id="tr_25_19" type="1"/>
	<vehicle id="tr_25_2" type="1"/>
	<vehicle id="tr_25_20" type="1"/>
	<vehicle id="tr_25_21" type="1"/>
	<vehicle id="tr_25_22" type="1"/>
	<vehicle id="tr_25_23" type="1"/>
	<vehicle id="tr_25_24" type="1"/>
	<vehicle id="tr_25_25" type="1"/>
	<vehicle id="tr_25_26" type="1"/>
	<vehicle id="tr_25_27" type="1"/>
	<vehicle id="tr_25_3" type="1"/>
	<vehicle id="tr_25_4" type="1"/>
	<vehicle id="tr_25_5" type="1"/>
	<vehicle id="tr_25_6" type="1"/>
	<vehicle id="tr_25_7" type="1"/>
	<vehicle id="tr_25_8" type="1"/>
	<vehicle id="tr_25_9" type="1"/>
	<vehicle id="tr_26_0" type="1"/>
	<vehicle id="tr_26_1" type="1"/>
	<vehicle id="tr_26_10" type="1"/>
	<vehicle id="tr_26_11" type="1"/>
	<vehicle id="tr_26_12" type="1"/>
	<vehicle id="tr_26_13" type="1"/>
	<vehicle id="tr_26_14" type="1"/>
	<vehicle id="tr_26_15" type="1"/>
	<vehicle id="tr_26_16" type="1"/>
	<vehicle id="tr_26_17" type="1"/>
	<vehicle id="tr_26_18" type="1"/>
	<vehicle id="tr_26_19" type="1"/>
	<vehicle id="tr_26_2" type="1"/>
	<vehicle id="tr_26_20" type="1"/>
	<vehicle id="tr_26_21" type="1"/>
	<vehicle id="tr_26_22" type="1"/>
	<vehicle id="tr_26_23" type="1"/>
	<vehicle id="tr_26_24" type="1"/>
	<vehicle id="tr_26_25" type="1"/>
	<vehicle id="tr_26_26" type="1"/>
	<vehicle id="tr_26_27" type="1"/>
	<vehicle id="tr_26_3" type="1"/>
	<vehicle id="tr_26_4" type="1"/>
	<vehicle id="tr_26_5" type="1"/>
	<vehicle id="tr_26_6" type="1"/>
	<vehicle id="tr_26_7" type="1"/>
	<vehicle id="tr_26_8" type="1"/>
	<vehicle id="tr_26_9" type="1"/>
	<vehicle id="tr_27_0" type="1"/>
	<vehicle id="tr_27_1" type="1"/>
	<vehicle id="tr_27_10" type="1"/>
	<vehicle id="tr_27_11" type="1"/>
	<vehicle id="tr_27_12" type="1"/>
	<vehicle id="tr_27_13" type="1"/>
	<vehicle id="tr_27_14" type="1"/>
	<vehicle id="tr_27_15" type="1"/>
	<vehicle id="tr_27_16" type="1"/>
	<vehicle id="tr_27_17" type="1"/>
	<vehicle id="tr_27_18" type="1"/>
	<vehicle id="tr_27_19" type="1"/>
	<vehicle id="tr_27_2" type="1"/>
	<vehicle id="tr_27_20" type="1"/>
	<vehicle id="tr_27_21" type="1"/>
	<vehicle id="tr_27_22" type="1"/>
	<vehicle id="tr_27_23" type="1"/>
	<vehicle id="tr_27_24" type="1"/>
	<vehicle id="tr_27_25" type="1"/>
	<vehicle id="tr_27_26" type="1"/>
	<vehicle id="tr_27_27" type="1"/>
	<vehicle id="tr_27_3" type="1"/>
	<vehicle id="tr_27_4" type="1"/>
	<vehicle id="tr_27_5" type="1"/>
	<vehicle id="tr_27_6" type="1"/>
	<vehicle id="tr_27_7" type="1"/>
	<vehicle id="tr_27_8" type="1"/>
	<vehicle id="tr_27_9" type="1"/>
	<vehicle id="tr_28_0" type="1"/>
	<vehicle id="tr_28_1" type="1"/>
	<vehicle id="tr_28_10" type="1"/>
	<vehicle id="tr_28_11" type="1"/>
	<vehicle id="tr_28_12" type="1"/>
	<vehicle id="tr_28_13" type="1"/>
	<vehicle id="tr_28_14" type="1"/>
	<vehicle id="tr_28_15" type="1"/>
	<vehicle id="tr_28_16" type="1"/>
	<vehicle id="tr_28_17" type="1"/>
	<vehicle id="tr_28_18" type="1"/>
	<vehicle id="tr_28_19" type="1"/>
	<vehicle id="tr_28_2" type="1"/>
	<vehicle id="tr_28_20" type="1"/>
	<vehicle id="tr_28_21" type="1"/>
	<vehicle id="tr_28_22" type="1"/>
	<vehicle id="tr_28_23" type="1"/>
	<vehicle id="tr_28_24" type="1"/>
	<vehicle id="tr_28_25" type="1"/>
	<vehicle id="tr_28_26" type="1"/>
	<vehicle id="tr_28_27" type="1"/>
	<vehicle id="tr_28_3" type="1"/>
	<vehicle id="tr_28_4" type="1"/>
	<vehicle id="tr_28_5" type="1"/>
	<vehicle id="tr_28_6" type="1"/>
	<vehicle id="tr_28_7" type="1"/>
	<vehicle id="tr_28_8" type="1"/>
	<vehicle id="tr_28_9" type="1"/>
	<vehicle id="tr_29_0" type="1"/>
	<vehicle id="tr_29_1" type="1"/>
	<vehicle id="tr_29_10" type="1"/>
	<vehicle id="tr_29_11" type="1"/>
	<vehicle id="tr_29_12" type="1"/>
	<vehicle id="tr_29_13" type="1"/>
	<vehicle id="tr_29_14" type="1"/>
	<vehicle id="tr_29_15" type="1"/>
	<vehicle id="tr_29_16" type="1"/>
	<vehicle id="tr_29_17" type="1"/>
	<vehicle id="tr_29_18" type="1"/>
	<vehicle id="tr_29_19" type="1"/>
	<vehicle id="tr_29_2" type="1"/>
	<vehicle id="tr_29_20" type="1"/>
	<vehicle id="tr_29_21" type="1"/>
	<vehicle id="tr_29_22" type="1"/>
	<vehicle id="tr_29_23" type="1"/>
	<vehicle id="tr_29_24" type="1"/>
	<vehicle id="tr_29_25" type="1"/>
	<vehicle id="tr_29_26" type="1"/>
	<vehicle id="tr_29_27" type="1"/>
	<vehicle id="tr_29_3" type="1"/>
	<vehicle id="tr_29_4" type="1"/>
	<vehicle id="tr_29_5" type="1"/>
	<vehicle id="tr_29_6" type="1"/>
	<vehicle id="tr_29_7" type="1"/>
	<vehicle id="tr_29_8" type="1"/>
	<vehicle id="tr_29_9" type="1"/>
	<vehicle id="tr_2_0" type="1"/>
	<vehicle id="tr_2_1" type="1"/>
	<vehicle id="tr_2_10" type="1"/>
	<vehicle id="tr_2_11" type="1"/>
	<vehicle id="tr_2_12" type="1"/>
	<vehicle id="tr_2_13" type="1"/>
	<vehicle id="tr_2_14" type="1"/>
	<vehicle id="tr_2_15" type="1"/>
	<vehicle id="tr_2_16" type="1"/>
	<vehicle id="tr_2_17" type="1"/>
	<vehicle id="tr_2_18" type="1"/>
	<vehicle id="tr_2_19" type="1"/>
	<vehicle id="tr_2_2" type="1"/>
	<vehicle id="tr_2_20" type="1"/>
	<vehicle id="tr_2_21" type="1"/>
	<vehicle id="tr_2_22" type="1"/>
	<vehicle id="tr_2_23" type="1"/>
	<vehicle id="tr_2_24" type="1"/>
	<vehicle id="tr_2_25" type="1"/>
	<vehicle id="tr_2_26" type="1"/>
	<vehicle id="tr_2_27" type="1"/>
	<vehicle id="tr_2_3" type="1"/>
	<vehicle id="tr_2_4" type="1"/>
	<vehicle id="tr_2_5" type="1"/>
	<vehicle id="tr_2_6" type="1"/>
	<vehicle id="tr_2_7" type="1"/>
	<vehicle id="tr_2_8" type="1"/>
	<vehicle id="tr_2_9" type="1"/>
	<vehicle id="tr_30_0" type="1"/>
	<vehicle id="tr_30_1" type="1"/>
	<vehicle id="tr_30_10" type="1"/>
	<vehicle id="tr_30_11" type="1"/>
	<vehicle id="tr_30_12" type="1"/>
	<vehicle id="tr_30_13" type="1"/>
	<vehicle id="tr_30_14" type="1"/>
	<vehicle id="tr_30_15" type="1"/>
	<vehicle id="tr_30_16" type="1"/>
	<vehicle id="tr_30_17" type="1"/>
	<vehicle id="tr_30_18" type="1"/>
	<vehicle id="tr_30_19" type="1"/>
	<vehicle id="tr_30_2" type="1"/>
	<vehicle id="tr_30_20" type="1"/>
	<vehicle id="tr_30_21" type="1"/>
	<vehicle id="tr_30_22" type="1"/>
	<vehicle id="tr_30_23" type="1"/>
	<vehicle id="tr_30_24" type="1"/>
	<vehicle id="tr_30_25" type="1"/>
	<vehicle id="tr_30_26" type="1"/>
	<vehicle id="tr_30_27" type="1"/>
	<vehicle id="tr_30_3" type="1"/>
	<vehicle id="tr_30_4" type="1"/>
	<vehicle id="tr_30_5" type="1"/>
	<vehicle id="tr_30_6" type="1"/>
	<vehicle id="tr_30_7" type="1"/>
	<vehicle id="tr_30_8" type="1"/>
	<vehicle id="tr_30_9" type="1"/>
	<vehicle id="tr_31_0" type="1"/>
	<vehicle id="tr_31_1" type="1"/>
	<vehicle id="tr_31_10" type="1"/>
	<vehicle id="tr_31_11" type="1"/>
	<vehicle id="tr_31_12" type="1"/>
	<vehicle id="tr_31_13" type="1"/>
	<vehicle id="tr_31_14" type="1"/>
	<vehicle id="tr_31_15" type="1"/>
	<vehicle id="tr_31_16" type="1"/>
	<vehicle id="tr_31_17" type="1"/>
	<vehicle id="tr_31_18" type="1"/>
	<vehicle id="tr_31_19" type="1"/>
	<vehicle id="tr_31_2" type="1"/>
	<vehicle id="tr_31_20" type="1"/>
	<vehicle id="tr_31_21" type="1"/>
	<vehicle id="tr_31_22" type="1"/>
	<vehicle id="tr_31_23" type="1"/>
	<vehicle id="tr_31_24" type="1"/>
	<vehicle id="tr_31_25" type="1"/>
	<vehicle id="tr_31_26" type="1"/>
	<vehicle id="tr_31_27" type="1"/>
	<vehicle id="tr_31_3" type="1"/>
	<vehicle id="tr_31_4" type="1"/>
	<vehicle id="tr_31_5" type="1"/>
	<vehicle id="tr_31_6" type="1"/>
	<vehicle id="tr_31_7" type="1"/>
	<vehicle id="tr_31_8" type="1"/>
	<vehicle id="tr_31_9" type="1"/>
	<vehicle id="tr_32_0" type="1"/>
	<vehicle id="tr_32_1" type="1"/>
	<vehicle id="tr_32_10" type="1"/>
	<vehicle id="tr_32_11" type="1"/>
	<vehicle id="tr_32_12" type="1"/>
	<vehicle id="tr_32_13" type="1"/>
	<vehicle id="tr_32_14" type="1"/>
	<vehicle id="tr_32_15" type="1"/>
	<vehicle id="tr_32_16" type="1"/>
	<vehicle id="tr_32_17" type="1"/>
	<vehicle id="tr_32_18" type="1"/>
	<vehicle id="tr_32_19" type="1"/>
	<vehicle id="tr_32_2" type="1"/>
	<vehicle id="tr_32_20" type="1"/>
	<vehicle id="tr_32_21" type="1"/>
	<vehicle id="tr_32_22" type="1"/>
	<vehicle id="tr_32_23" type="1"/>
	<vehicle id="tr_32_24" type="1"/>
	<vehicle id="tr_32_25" type="1"/>
	<vehicle id="tr_32_26" type="1"/>
	<vehicle id="tr_32_27" type="1"/>
	<vehicle id="tr_32_3" type="1"/>
	<vehicle id="tr_32_4" type="1"/>
	<vehicle id="tr_32_5" type="1"/>
	<vehicle id="tr_32_6" type="1"/>
	<vehicle id="tr_32_7" type="1"/>
	<vehicle id="tr_32_8" type="1"/>
	<vehicle id="tr_32_9" type="1"/>
	<vehicle id="tr_33_0" type="1"/>
	<vehicle id="tr_33_1" type="1"/>
	<vehicle id="tr_33_10" type="1"/>
	<vehicle id="tr_33_11" type="1"/>
	<vehicle id="tr_33_12" type="1"/>
	<vehicle id="tr_33_13" type="1"/>
	<vehicle id="tr_33_14" type="1"/>
	<vehicle id="tr_33_15" type="1"/>
	<vehicle id="tr_33_16" type="1"/>
	<vehicle id="tr_33_17" type="1"/>
	<vehicle id="tr_33_18" type="1"/>
	<vehicle id="tr_33_19" type="1"/>
	<vehicle id="tr_33_2" type="1"/>
	<vehicle id="tr_33_20" type="1"/>
	<vehicle id="tr_33_21" type="1"/>
	<vehicle id="tr_33_22" type="1"/>
	<vehicle id="tr_33_23" type="1"/>
	<vehicle id="tr_33_24" type="1"/>
	<vehicle id="tr_33_25" type="1"/>
	<vehicle id="tr_33_26" type="1"/>
	<vehicle id="tr_33_27" type="1"/>
	<vehicle id="tr_33_3" type="1"/>
	<vehicle id="tr_33_4" type="1"/>
	<vehicle id="tr_33_5" type="1"/>
	<vehicle id="tr_33_6" type="1"/>
	<vehicle id="tr_33_7" type="1"/>
	<vehicle id="tr_33_8" type="1"/>
	<vehicle id="tr_33_9" type="1"/>
	<vehicle id="tr_34_0" type="1"/>
	<vehicle id="tr_34_1" type="1"/>
	<vehicle id="tr_34_10" type="1"/>
	<vehicle id="tr_34_11" type="1"/>
	<vehicle id="tr_34_12" type="1"/>
	<vehicle id="tr_34_13" type="1"/>
	<vehicle id="tr_34_14" type="1"/>
	<vehicle id="tr_34_15" type="1"/>
	<vehicle id="tr_34_16" type="1"/>
	<vehicle id="tr_34_17" type="1"/>
	<vehicle id="tr_34_18" type="1"/>
	<vehicle id="tr_34_19" type="1"/>
	<vehicle id="tr_34_2" type="1"/>
	<vehicle id="tr_34_20" type="1"/>
	<vehicle id="tr_34_21" type="1"/>
	<vehicle id="tr_34_22" type="1"/>
	<vehicle id="tr_34_23" type="1"/>
	<vehicle id="tr_34_24" type="1"/>
	<vehicle id="tr_34_25" type="1"/>
	<vehicle id="tr_34_26" type="1"/>
	<vehicle id="tr_34_27" type="1"/>
	<vehicle id="tr_34_3" type="1"/>
	<vehicle id="tr_34_4" type="1"/>
	<vehicle id="tr_34_5" type="1"/>
	<vehicle id="tr_34_6" type="1"/>
	<vehicle id="tr_34_7" type="1"/>
	<vehicle id="tr_34_8" type="1"/>
	<vehicle id="tr_34_9" type="1"/>
	<vehicle id="tr_35_0" type="1"/>
	<vehicle id="tr_35_1" type="1"/>
	<vehicle id="tr_35_10" type="1"/>
	<vehicle id="tr_35_11" type="1"/>
	<vehicle id="tr_35_12" type="1"/>
	<vehicle id="tr_35_13" type="1"/>
	<vehicle id="tr_35_14" type="1"/>
	<vehicle id="tr_35_15" type="1"/>
	<vehicle id="tr_35_16" type="1"/>
	<vehicle id="tr_35_17" type="1"/>
	<vehicle id="tr_35_18" type="1"/>
	<vehicle id="tr_35_19" type="1"/>
	<vehicle id="tr_35_2" type="1"/>
	<vehicle id="tr_35_20" type="1"/>
	<vehicle id="tr_35_21" type="1"/>
	<vehicle id="tr_35_22" type="1"/>
	<vehicle id="tr_35_23" type="1"/>
	<vehicle id="tr_35_24" type="1"/>
	<vehicle id="tr_35_25" type="1"/>
	<vehicle id="tr_35_26" type="1"/>
	<vehicle id="tr_35_27" type="1"/>
	<vehicle id="tr_35_3" type="1"/>
	<vehicle id="tr_35_4" type="1"/>
	<vehicle id="tr_35_5" type="1"/>
	<vehicle id="tr_35_6" type="1"/>
	<vehicle id="tr_35_7" type="1"/>
	<vehicle id="tr_35_8" type="1"/>
	<vehicle id="tr_35_9" type="1"/>
	<vehicle id="tr_36_0" type="1"/>
	<vehicle id="tr_36_1" type="1"/>
	<vehicle id="tr_36_10" type="1"/>
	<vehicle id="tr_36_11" type="1"/>
	<vehicle id="tr_36_12" type="1"/>
	<vehicle id="tr_36_13" type="1"/>
	<vehicle id="tr_36_14" type="1"/>
	<vehicle id="tr_36_15" type="1"/>
	<vehicle id="tr_36_16" type="1"/>
	<vehicle id="tr_36_17" type="1"/>
	<vehicle id="tr_36_18" type="1"/>
	<vehicle id="tr_36_19" type="1"/>
	<vehicle id="tr_36_2" type="1"/>
	<vehicle id="tr_36_20" type="1"/>
	<vehicle id="tr_36_21" type="1"/>
	<vehicle id="tr_36_22" type="1"/>
	<vehicle id="tr_36_23" type="1"/>
	<vehicle id="tr_36_24" type="1"/>
	<vehicle id="tr_36_25" type="1"/>
	<vehicle id="tr_36_26" type="1"/>
	<vehicle id="tr_36_27" type="1"/>
	<vehicle id="tr_36_3" type="1"/>
	<vehicle id="tr_36_4" type="1"/>
	<vehicle id="tr_36_5" type="1"/>
	<vehicle id="tr_36_6" type="1"/>
	<vehicle id="tr_36_7" type="1"/>
	<vehicle id="tr_36_8" type="1"/>
	<vehicle id="tr_36_9" type="1"/>
	<vehicle id="tr_37_0" type="1"/>
	<vehicle id="tr_37_1" type="1"/>
	<vehicle id="tr_37_10" type="1"/>
	<vehicle id="tr_37_11" type="1"/>
	<vehicle id="tr_37_12" type="1"/>
	<vehicle id="tr_37_13" type="1"/>
	<vehicle id="tr_37_14" type="1"/>
	<vehicle id="tr_37_15" type="1"/>
	<vehicle id="tr_37_16" type="1"/>
	<vehicle id="tr_37_17" type="1"/>