<?xml version="1.0" encoding="UTF-8"?>
<!DOCTYPE transitSchedule SYSTEM "http://www.matsim.org/files/dtd/transitSchedule_v2.dtd">

<transitSchedule>

	<transitStops>
		<stopFacility id="0" x="500.0" y="0.0" linkRefId="505_506" isBlocking="false"/>
		<stopFacility id="1" x="500.0" y="100.0" linkRefId="506_507" isBlocking="false"/>
		<stopFacility id="10" x="500.0" y="1000.0" linkRefId="515_516" isBlocking="false"/>
		<stopFacility id="100" x="500.0" y="10000.0" linkRefId="605_604" isBlocking="false"/>
		<stopFacility id="1000" x="5500.0" y="0.0" linkRefId="5555_5556" isBlocking="false"/>
		<stopFacility id="1001" x="5500.0" y="100.0" linkRefId="5556_5557" isBlocking="false"/>
		<stopFacility id="1002" x="5500.0" y="200.0" linkRefId="5557_5558" isBlocking="false"/>
		<stopFacility id="1003" x="5500.0" y="300.0" linkRefId="5558_5559" isBlocking="false"/>
		<stopFacility id="1004" x="5500.0" y="400.0" linkRefId="5559_5560" isBlocking="false"/>
		<stopFacility id="1005" x="5500.0" y="500.0" linkRefId="5560_5561" isBlocking="false"/>
		<stopFacility id="1006" x="5500.0" y="600.0" linkRefId="5561_5562" isBlocking="false"/>
		<stopFacility id="1007" x="5500.0" y="700.0" linkRefId="5562_5563" isBlocking="false"/>
		<stopFacility id="1008" x="5500.0" y="800.0" linkRefId="5563_5564" isBlocking="false"/>
		<stopFacility id="1009" x="5500.0" y="900.0" linkRefId="5564_5565" isBlocking="false"/>
		<stopFacility id="101" x="500.0" y="9900.0" linkRefId="604_603" isBlocking="false"/>
		<stopFacility id="1010" x="5500.0" y="1000.0" linkRefId="5565_5566" isBlocking="false"/>
		<stopFacility id="1011" x="5500.0" y="1100.0" linkRefId="5566_5567" isBlocking="false"/>
		<stopFacility id="1012" x="5500.0" y="1200.0" linkRefId="5567_5568" isBlocking="false"/>
		<stopFacility id="1013" x="5500.0" y="1300.0" linkRefId="5568_5569" isBlocking="false"/>
		<stopFacility id="1014" x="5500.0" y="1400.0" linkRefId="5569_5570" isBlocking="false"/>
		<stopFacility id="1015" x="5500.0" y="1500.0" linkRefId="5570_5571" isBlocking="false"/>
		<stopFacility id="1016" x="5500.0" y="1600.0" linkRefId="5571_5572" isBlocking="false"/>
		<stopFacility id="1017" x="5500.0" y="1700.0" linkRefId="5572_5573" isBlocking="false"/>
		<stopFacility id="1018" x="5500.0" y="1800.0" linkRefId="5573_5574" isBlocking="false"/>
		<stopFacility id="1019" x="5500.0" y="1900.0" linkRefId="5574_5575" isBlocking="false"/>
		<stopFacility id="102" x="500.0" y="9800.0" linkRefId="603_602" isBlocking="false"/>
		<stopFacility id="1020" x="5500.0" y="2000.0" linkRefId="5575_5576" isBlocking="false"/>
		<stopFacility id="1021" x="5500.0" y="2100.0" linkRefId="5576_5577" isBlocking="false"/>
		<stopFacility id="1022" x="5500.0" y="2200.0" linkRefId="5577_5578" isBlocking="false"/>
		<stopFacility id="1023" x="5500.0" y="2300.0" linkRefId="5578_5579" isBlocking="false"/>
		<stopFacility id="1024" x="5500.0" y="2400.0" linkRefId="5579_5580" isBlocking="false"/>
		<stopFacility id="1025" x="5500.0" y="2500.0" linkRefId="5580_5581" isBlocking="false"/>
		<stopFacility id="1026" x="5500.0" y="2600.0" linkRefId="5581_5582" isBlocking="false"/>
		<stopFacility id="1027" x="5500.0" y="2700.0" linkRefId="5582_5583" isBlocking="false"/>
		<stopFacility id="1028" x="5500.0" y="2800.0" linkRefId="5583_5584" isBlocking="false"/>
		<stopFacility id="1029" x="5500.0" y="2900.0" linkRefId="5584_5585" isBlocking="false"/>
		<stopFacility id="103" x="500.0" y="9700.0" linkRefId="602_601" isBlocking="false"/>
		<stopFacility id="1030" x="5500.0" y="3000.0" linkRefId="5585_5586" isBlocking="false"/>
		<stopFacility id="1031" x="5500.0" y="3100.0" linkRefId="5586_5587" isBlocking="false"/>
		<stopFacility id="1032" x="5500.0" y="3200.0" linkRefId="5587_5588" isBlocking="false"/>
		<stopFacility id="1033" x="5500.0" y="3300.0" linkRefId="5588_5589" isBlocking="false"/>
		<stopFacility id="1034" x="5500.0" y="3400.0" linkRefId="5589_5590" isBlocking="false"/>
		<stopFacility id="1035" x="5500.0" y="3500.0" linkRefId="5590_5591" isBlocking="false"/>
		<stopFacility id="1036" x="5500.0" y="3600.0" linkRefId="5591_5592" isBlocking="false"/>
		<stopFacility id="1037" x="5500.0" y="3700.0" linkRefId="5592_5593" isBlocking="false"/>
		<stopFacility id="1038" x="5500.0" y="3800.0" linkRefId="5593_5594" isBlocking="false"/>
		<stopFacility id="1039" x="5500.0" y="3900.0" linkRefId="5594_5595" isBlocking="false"/>
		<stopFacility id="104" x="500.0" y="9600.0" linkRefId="601_600" isBlocking="false"/>
		<stopFacility id="1040" x="5500.0" y="4000.0" linkRefId="5595_5596" isBlocking="false"/>
		<stopFacility id="1041" x="5500.0" y="4100.0" linkRefId="5596_5597" isBlocking="false"/>
		<stopFacility id="1042" x="5500.0" y="4200.0" linkRefId="5597_5598" isBlocking="false"/>
		<stopFacility id="1043" x="5500.0" y="4300.0" linkRefId="5598_5599" isBlocking="false"/>
		<stopFacility id="1044" x="5500.0" y="4400.0" linkRefId="5599_5600" isBlocking="false"/>
		<stopFacility id="1045" x="5500.0" y="4500.0" linkRefId="5600_5601" isBlocking="false"/>
		<stopFacility id="1046" x="5500.0" y="4600.0" linkRefId="5601_5602" isBlocking="false"/>
		<stopFacility id="1047" x="5500.0" y="4700.0" linkRefId="5602_5603" isBlocking="false"/>
		<stopFacility id="1048" x="5500.0" y="4800.0" linkRefId="5603_5604" isBlocking="false"/>
		<stopFacility id="1049" x="5500.0" y="4900.0" linkRefId="5604_5605" isBlocking="false"/>
		<stopFacility id="105" x="500.0" y="9500.0" linkRefId="600_599" isBlocking="false"/>
		<stopFacility id="1050" x="5500.0" y="5000.0" linkRefId="5605_5606" isBlocking="false"/>
		<stopFacility id="1051" x="5500.0" y="5100.0" linkRefId="5606_5607" isBlocking="false"/>
		<stopFacility id="1052" x="5500.0" y="5200.0" linkRefId="5607_5608" isBlocking="false"/>
		<stopFacility id="1053" x="5500.0" y="5300.0" linkRefId="5608_5609" isBlocking="false"/>
		<stopFacility id="1054" x="5500.0" y="5400.0" linkRefId="5609_5610" isBlocking="false"/>
		<stopFacility id="1055" x="5500.0" y="5500.0" linkRefId="5610_5611" isBlocking="false"/>
		<stopFacility id="1056" x="5500.0" y="5600.0" linkRefId="5611_5612" isBlocking="false"/>
		<stopFacility id="1057" x="5500.0" y="5700.0" linkRefId="5612_5613" isBlocking="false"/>
		<stopFacility id="1058" x="5500.0" y="5800.0" linkRefId="5613_5614" isBlocking="false"/>
		<stopFacility id="1059" x="5500.0" y="5900.0" linkRefId="5614_5615" isBlocking="false"/>
		<stopFacility id="106" x="500.0" y="9400.0" linkRefId="599_598" isBlocking="false"/>
		<stopFacility id="1060" x="5500.0" y="6000.0" linkRefId="5615_5616" isBlocking="false"/>
		<stopFacility id="1061" x="5500.0" y="6100.0" linkRefId="5616_5617" isBlocking="false"/>
		<stopFacility id="1062" x="5500.0" y="6200.0" linkRefId="5617_5618" isBlocking="false"/>
		<stopFacility id="1063" x="5500.0" y="6300.0" linkRefId="5618_5619" isBlocking="false"/>
		<stopFacility id="1064" x="5500.0" y="6400.0" linkRefId="5619_5620" isBlocking="false"/>
		<stopFacility id="1065" x="5500.0" y="6500.0" linkRefId="5620_5621" isBlocking="false"/>
		<stopFacility id="1066" x="5500.0" y="6600.0" linkRefId="5621_5622" isBlocking="false"/>
		<stopFacility id="1067" x="5500.0" y="6700.0" linkRefId="5622_5623" isBlocking="false"/>
		<stopFacility id="1068" x="5500.0" y="6800.0" linkRefId="5623_5624" isBlocking="false"/>
		<stopFacility id="1069" x="5500.0" y="6900.0" linkRefId="5624_5625" isBlocking="false"/>
		<stopFacility id="107" x="500.0" y="9300.0" linkRefId="598_597" isBlocking="false"/>
		<stopFacility id="1070" x="5500.0" y="7000.0" linkRefId="5625_5626" isBlocking="false"/>
		<stopFacility id="1071" x="5500.0" y="7100.0" linkRefId="5626_5627" isBlocking="false"/>
		<stopFacility id="1072" x="5500.0" y="7200.0" linkRefId="5627_5628" isBlocking="false"/>
		<stopFacility id="1073" x="5500.0" y="7300.0" linkRefId="5628_5629" isBlocking="false"/>
		<stopFacility id="1074" x="5500.0" y="7400.0" linkRefId="5629_5630" isBlocking="false"/>
		<stopFacility id="1075" x="5500.0" y="7500.0" linkRefId="5630_5631" isBlocking="false"/>
		<stopFacility id="1076" x="5500.0" y="7600.0" linkRefId="5631_5632" isBlocking="false"/>
		<stopFacility id="1077" x="5500.0" y="7700.0" linkRefId="5632_5633" isBlocking="false"/>
		<stopFacility id="1078" x="5500.0" y="7800.0" linkRefId="5633_5634" isBlocking="false"/>
		<stopFacility id="1079" x="5500.0" y="7900.0" linkRefId="5634_5635" isBlocking="false"/>
		<stopFacility id="108" x="500.0" y="9200.0" linkRefId="597_596" isBlocking="false"/>
		<stopFacility id="1080" x="5500.0" y="8000.0" linkRefId="5635_5636" isBlocking="false"/>
		<stopFacility id="1081" x="5500.0" y="8100.0" linkRefId="5636_5637" isBlocking="false"/>
		<stopFacility id="1082" x="5500.0" y="8200.0" linkRefId="5637_5638" isBlocking="false"/>
		<stopFacility id="1083" x="5500.0" y="8300.0" linkRefId="5638_5639" isBlocking="false"/>
		<stopFacility id="1084" x="5500.0" y="8400.0" linkRefId="5639_5640" isBlocking="false"/>
		<stopFacility id="1085" x="5500.0" y="8500.0" linkRefId="5640_5641" isBlocking="false"/>
		<stopFacility id="1086" x="5500.0" y="8600.0" linkRefId="5641_5642" isBlocking="false"/>
		<stopFacility id="1087" x="5500.0" y="8700.0" linkRefId="5642_5643" isBlocking="false"/>
		<stopFacility id="1088" x="5500.0" y="8800.0" linkRefId="5643_5644" isBlocking="false"/>
		<stopFacility id="1089" x="5500.0" y="8900.0" linkRefId="5644_5645" isBlocking="false"/>
		<stopFacility id="109" x="500.0" y="9100.0" linkRefId="596_595" isBlocking="false"/>
		<stopFacility id="1090" x="5500.0" y="9000.0" linkRefId="5645_5646" isBlocking="false"/>
		<stopFacility id="1091" x="5500.0" y="9100.0" linkRefId="5646_5647" isBlocking="false"/>
		<stopFacility id="1092" x="5500.0" y="9200.0" linkRefId="5647_5648" isBlocking="false"/>
		<stopFacility id="1093" x="5500.0" y="9300.0" linkRefId="5648_5649" isBlocking="false"/>
		<stopFacility id="1094" x="5500.0" y="9400.0" linkRefId="5649_5650" isBlocking="false"/>
		<stopFacility id="1095" x="5500.0" y="9500.0" linkRefId="5650_5651" isBlocking="false"/>
		<stopFacility id="1096" x="5500.0" y="9600.0" linkRefId="5651_5652" isBlocking="false"/>
		<stopFacility id="1097" x="5500.0" y="9700.0" linkRefId="5652_5653" isBlocking="false"/>
		<stopFacility id="1098" x="5500.0" y="9800.0" linkRefId="5653_5654" isBlocking="false"/>
		<stopFacility id="1099" x="5500.0" y="9900.0" linkRefId="5654_5655" isBlocking="false"/>
		<stopFacility id="11" x="500.0" y="1100.0" linkRefId="516_517" isBlocking="false"/>
		<stopFacility id="110" x="500.0" y="9000.0" linkRefId="595_594" isBlocking="false"/>
		<stopFacility id="1100" x="5500.0" y="10000.0" linkRefId="5655_5654" isBlocking="false"/>
		<stopFacility id="1101" x="5500.0" y="9900.0" linkRefId="5654_5653" isBlocking="false"/>
		<stopFacility id="1102" x="5500.0" y="9800.0" linkRefId="5653_5652" isBlocking="false"/>
		<stopFacility id="1103" x="5500.0" y="9700.0" linkRefId="5652_5651" isBlocking="false"/>
		<stopFacility id="1104" x="5500.0" y="9600.0" linkRefId="5651_5650" isBlocking="false"/>
		<stopFacility id="1105" x="5500.0" y="9500.0" linkRefId="5650_5649" isBlocking="false"/>
		<stopFacility id="1106" x="5500.0" y="9400.0" linkRefId="5649_5648" isBlocking="false"/>
		<stopFacility id="1107" x="5500.0" y="9300.0" linkRefId="5648_5647" isBlocking="false"/>
		<stopFacility id="1108" x="5500.0" y="9200.0" linkRefId="5647_5646" isBlocking="false"/>
		<stopFacility id="1109" x="5500.0" y="9100.0" linkRefId="5646_5645" isBlocking="false"/>
		<stopFacility id="111" x="500.0" y="8900.0" linkRefId="594_593" isBlocking="false"/>
		<stopFacility id="1110" x="5500.0" y="9000.0" linkRefId="5645_5644" isBlocking="false"/>
		<stopFacility id="1111" x="5500.0" y="8900.0" linkRefId="5644_5643" isBlocking="false"/>
		<stopFacility id="1112" x="5500.0" y="8800.0" linkRefId="5643_5642" isBlocking="false"/>
		<stopFacility id="1113" x="5500.0" y="8700.0" linkRefId="5642_5641" isBlocking="false"/>
		<stopFacility id="1114" x="5500.0" y="8600.0" linkRefId="5641_5640" isBlocking="false"/>
		<stopFacility id="1115" x="5500.0" y="8500.0" linkRefId="5640_5639" isBlocking="false"/>
		<stopFacility id="1116" x="5500.0" y="8400.0" linkRefId="5639_5638" isBlocking="false"/>
		<stopFacility id="1117" x="5500.0" y="8300.0" linkRefId="5638_5637" isBlocking="false"/>
		<stopFacility id="1118" x="5500.0" y="8200.0" linkRefId="5637_5636" isBlocking="false"/>
		<stopFacility id="1119" x="5500.0" y="8100.0" linkRefId="5636_5635" isBlocking="false"/>
		<stopFacility id="112" x="500.0" y="8800.0" linkRefId="593_592" isBlocking="false"/>
		<stopFacility id="1120" x="5500.0" y="8000.0" linkRefId="5635_5634" isBlocking="false"/>
		<stopFacility id="1121" x="5500.0" y="7900.0" linkRefId="5634_5633" isBlocking="false"/>
		<stopFacility id="1122" x="5500.0" y="7800.0" linkRefId="5633_5632" isBlocking="false"/>
		<stopFacility id="1123" x="5500.0" y="7700.0" linkRefId="5632_5631" isBlocking="false"/>
		<stopFacility id="1124" x="5500.0" y="7600.0" linkRefId="5631_5630" isBlocking="false"/>
		<stopFacility id="1125" x="5500.0" y="7500.0" linkRefId="5630_5629" isBlocking="false"/>
		<stopFacility id="1126" x="5500.0" y="7400.0" linkRefId="5629_5628" isBlocking="false"/>
		<stopFacility id="1127" x="5500.0" y="7300.0" linkRefId="5628_5627" isBlocking="false"/>
		<stopFacility id="1128" x="5500.0" y="7200.0" linkRefId="5627_5626" isBlocking="false"/>
		<stopFacility id="1129" x="5500.0" y="7100.0" linkRefId="5626_5625" isBlocking="false"/>
		<stopFacility id="113" x="500.0" y="8700.0" linkRefId="592_591" isBlocking="false"/>
		<stopFacility id="1130" x="5500.0" y="7000.0" linkRefId="5625_5624" isBlocking="false"/>
		<stopFacility id="1131" x="5500.0" y="6900.0" linkRefId="5624_5623" isBlocking="false"/>
		<stopFacility id="1132" x="5500.0" y="6800.0" linkRefId="5623_5622" isBlocking="false"/>
		<stopFacility id="1133" x="5500.0" y="6700.0" linkRefId="5622_5621" isBlocking="false"/>
		<stopFacility id="1134" x="5500.0" y="6600.0" linkRefId="5621_5620" isBlocking="false"/>
		<stopFacility id="1135" x="5500.0" y="6500.0" linkRefId="5620_5619" isBlocking="false"/>
		<stopFacility id="1136" x="5500.0" y="6400.0" linkRefId="5619_5618" isBlocking="false"/>
		<stopFacility id="1137" x="5500.0" y="6300.0" linkRefId="5618_5617" isBlocking="false"/>
		<stopFacility id="1138" x="5500.0" y="6200.0" linkRefId="5617_5616" isBlocking="false"/>
		<stopFacility id="1139" x="5500.0" y="6100.0" linkRefId="5616_5615" isBlocking="false"/>
		<stopFacility id="114" x="500.0" y="8600.0" linkRefId="591_590" isBlocking="false"/>
		<stopFacility id="1140" x="5500.0" y="6000.0" linkRefId="5615_5614" isBlocking="false"/>
		<stopFacility id="1141" x="5500.0" y="5900.0" linkRefId="5614_5613" isBlocking="false"/>
		<stopFacility id="1142" x="5500.0" y="5800.0" linkRefId="5613_5612" isBlocking="false"/>
		<stopFacility id="1143" x="5500.0" y="5700.0" linkRefId="5612_5611" isBlocking="false"/>
		<stopFacility id="1144" x="5500.0" y="5600.0" linkRefId="5611_5610" isBlocking="false"/>
		<stopFacility id="1145" x="5500.0" y="5500.0" linkRefId="5610_5609" isBlocking="false"/>
		<stopFacility id="1146" x="5500.0" y="5400.0" linkRefId="5609_5608" isBlocking="false"/>
		<stopFacility id="1147" x="5500.0" y="5300.0" linkRefId="5608_5607" isBlocking="false"/>
		<stopFacility id="1148" x="5500.0" y="5200.0" linkRefId="5607_5606" isBlocking="false"/>
		<stopFacility id="1149" x="5500.0" y="5100.0" linkRefId="5606_5605" isBlocking="false"/>
		<stopFacility id="115" x="500.0" y="8500.0" linkRefId="590_589" isBlocking="false"/>
		<stopFacility id="1150" x="5500.0" y="5000.0" linkRefId="5605_5604" isBlocking="false"/>
		<stopFacility id="1151" x="5500.0" y="4900.0" linkRefId="5604_5603" isBlocking="false"/>
		<stopFacility id="1152" x="5500.0" y="4800.0" linkRefId="5603_5602" isBlocking="false"/>
		<stopFacility id="1153" x="5500.0" y="4700.0" linkRefId="5602_5601" isBlocking="false"/>
		<stopFacility id="1154" x="5500.0" y="4600.0" linkRefId="5601_5600" isBlocking="false"/>
		<stopFacility id="1155" x="5500.0" y="4500.0" linkRefId="5600_5599" isBlocking="false"/>
		<stopFacility id="1156" x="5500.0" y="4400.0" linkRefId="5599_5598" isBlocking="false"/>
		<stopFacility id="1157" x="5500.0" y="4300.0" linkRefId="5598_5597" isBlocking="false"/>
		<stopFacility id="1158" x="5500.0" y="4200.0" linkRefId="5597_5596" isBlocking="false"/>
		<stopFacility id="1159" x="5500.0" y="4100.0" linkRefId="5596_5595" isBlocking="false"/>
		<stopFacility id="116" x="500.0" y="8400.0" linkRefId="589_588" isBlocking="false"/>
		<stopFacility id="1160" x="5500.0" y="4000.0" linkRefId="5595_5594" isBlocking="false"/>
		<stopFacility id="1161" x="5500.0" y="3900.0" linkRefId="5594_5593" isBlocking="false"/>
		<stopFacility id="1162" x="5500.0" y="3800.0" linkRefId="5593_5592" isBlocking="false"/>
		<stopFacility id="1163" x="5500.0" y="3700.0" linkRefId="5592_5591" isBlocking="false"/>
		<stopFacility id="1164" x="5500.0" y="3600.0" linkRefId="5591_5590" isBlocking="false"/>
		<stopFacility id="1165" x="5500.0" y="3500.0" linkRefId="5590_5589" isBlocking="false"/>
		<stopFacility id="1166" x="5500.0" y="3400.0" linkRefId="5589_5588" isBlocking="false"/>
		<stopFacility id="1167" x="5500.0" y="3300.0" linkRefId="5588_5587" isBlocking="false"/>
		<stopFacility id="1168" x="5500.0" y="3200.0" linkRefId="5587_5586" isBlocking="false"/>
		<stopFacility id="1169" x="5500.0" y="3100.0" linkRefId="5586_5585" isBlocking="false"/>
		<stopFacility id="117" x="500.0" y="8300.0" linkRefId="588_587" isBlocking="false"/>
		<stopFacility id="1170" x="5500.0" y="3000.0" linkRefId="5585_5584" isBlocking="false"/>
		<stopFacility id="1171" x="5500.0" y="2900.0" linkRefId="5584_5583" isBlocking="false"/>
		<stopFacility id="1172" x="5500.0" y="2800.0" linkRefId="5583_5582" isBlocking="false"/>
		<stopFacility id="1173" x="5500.0" y="2700.0" linkRefId="5582_5581" isBlocking="false"/>
		<stopFacility id="1174" x="5500.0" y="2600.0" linkRefId="5581_5580" isBlocking="false"/>
		<stopFacility id="1175" x="5500.0" y="2500.0" linkRefId="5580_5579" isBlocking="false"/>
		<stopFacility id="1176" x="5500.0" y="2400.0" linkRefId="5579_5578" isBlocking="false"/>
		<stopFacility id="1177" x="5500.0" y="2300.0" linkRefId="5578_5577" isBlocking="false"/>
		<stopFacility id="1178" x="5500.0" y="2200.0" linkRefId="5577_5576" isBlocking="false"/>
		<stopFacility id="1179" x="5500.0" y="2100.0" linkRefId="5576_5575" isBlocking="false"/>
		<stopFacility id="118" x="500.0" y="8200.0" linkRefId="587_586" isBlocking="false"/>
		<stopFacility id="1180" x="5500.0" y="2000.0" linkRefId="5575_5574" isBlocking="false"/>
		<stopFacility id="1181" x="5500.0" y="1900.0" linkRefId="5574_5573" isBlocking="false"/>
		<stopFacility id="1182" x="5500.0" y="1800.0" linkRefId="5573_5572" isBlocking="false"/>
		<stopFacility id="1183" x="5500.0" y="1700.0" linkRefId="5572_5571" isBlocking="false"/>
		<stopFacility id="1184" x="5500.0" y="1600.0" linkRefId="5571_5570" isBlocking="false"/>
		<stopFacility id="1185" x="5500.0" y="1500.0" linkRefId="5570_5569" isBlocking="false"/>
		<stopFacility id="1186" x="5500.0" y="1400.0" linkRefId="5569_5568" isBlocking="false"/>
		<stopFacility id="1187" x="5500.0" y="1300.0" linkRefId="5568_5567" isBlocking="false"/>
		<stopFacility id="1188" x="5500.0" y="1200.0" linkRefId="5567_5566" isBlocking="false"/>
		<stopFacility id="1189" x="5500.0" y="1100.0" linkRefId="5566_5565" isBlocking="false"/>
		<stopFacility id="119" x="500.0" y="8100.0" linkRefId="586_585" isBlocking="false"/>
		<stopFacility id="1190" x="5500.0" y="1000.0" linkRefId="5565_5564" isBlocking="false"/>
		<stopFacility id="1191" x="5500.0" y="900.0" linkRefId="5564_5563" isBlocking="false"/>
		<stopFacility id="1192" x="5500.0" y="800.0" linkRefId="5563_5562" isBlocking="false"/>
		<stopFacility id="1193" x="5500.0" y="700.0" linkRefId="5562_5561" isBlocking="false"/>
		<stopFacility id="1194" x="5500.0" y="600.0" linkRefId="5561_5560" isBlocking="false"/>
		<stopFacility id="1195" x="5500.0" y="500.0" linkRefId="5560_5559" isBlocking="false"/>
		<stopFacility id="1196" x="5500.0" y="400.0" linkRefId="5559_5558" isBlocking="false"/>
		<stopFacility id="1197" x="5500.0" y="300.0" linkRefId="5558_5557" isBlocking="false"/>
		<stopFacility id="1198" x="5500.0" y="200.0" linkRefId="5557_5556" isBlocking="false"/>
		<stopFacility id="1199" x="5500.0" y="100.0" linkRefId="5556_5555" isBlocking="false"/>
		<stopFacility id="12" x="500.0" y="1200.0" linkRefId="517_518" isBlocking="false"/>
		<stopFacility id="120" x="500.0" y="8000.0" linkRefId="585_584" isBlocking="false"/>
		<stopFacility id="1200" x="6500.0" y="0.0" linkRefId="6565_6566" isBlocking="false"/>
		<stopFacility id="1201" x="6500.0" y="100.0" linkRefId="6566_6567" isBlocking="false"/>
		<stopFacility id="1202" x="6500.0" y="200.0" linkRefId="6567_6568" isBlocking="false"/>
		<stopFacility id="1203" x="6500.0" y="300.0" linkRefId="6568_6569" isBlocking="false"/>
		<stopFacility id="1204" x="6500.0" y="400.0" linkRefId="6569_6570" isBlocking="false"/>
		<stopFacility id="1205" x="6500.0" y="500.0" linkRefId="6570_6571" isBlocking="false"/>
		<stopFacility id="1206" x="6500.0" y="600.0" linkRefId="6571_6572" isBlocking="false"/>
		<stopFacility id="1207" x="6500.0" y="700.0" linkRefId="6572_6573" isBlocking="false"/>
		<stopFacility id="1208" x="6500.0" y="800.0" linkRefId="6573_6574" isBlocking="false"/>
		<stopFacility id="1209" x="6500.0" y="900.0" linkRefId="6574_6575" isBlocking="false"/>
		<stopFacility id="121" x="500.0" y="7900.0" linkRefId="584_583" isBlocking="false"/>
		<stopFacility id="1210" x="6500.0" y="1000.0" linkRefId="6575_6576" isBlocking="false"/>
		<stopFacility id="1211" x="6500.0" y="1100.0" linkRefId="6576_6577" isBlocking="false"/>
		<stopFacility id="1212" x="6500.0" y="1200.0" linkRefId="6577_6578" isBlocking="false"/>
		<stopFacility id="1213" x="6500.0" y="1300.0" linkRefId="6578_6579" isBlocking="false"/>
		<stopFacility id="1214" x="6500.0" y="1400.0" linkRefId="6579_6580" isBlocking="false"/>
		<stopFacility id="1215" x="6500.0" y="1500.0" linkRefId="6580_6581" isBlocking="false"/>
		<stopFacility id="1216" x="6500.0" y="1600.0" linkRefId="6581_6582" isBlocking="false"/>
		<stopFacility id="1217" x="6500.0" y="1700.0" linkRefId="6582_6583" isBlocking="false"/>
		<stopFacility id="1218" x="6500.0" y="1800.0" linkRefId="6583_6584" isBlocking="false"/>
		<stopFacility id="1219" x="6500.0" y="1900.0" linkRefId="6584_6585" isBlocking="false"/>
		<stopFacility id="122" x="500.0" y="7800.0" linkRefId="583_582" isBlocking="false"/>
		<stopFacility id="1220" x="6500.0" y="2000.0" linkRefId="6585_6586" isBlocking="false"/>
		<stopFacility id="1221" x="6500.0" y="2100.0" linkRefId="6586_6587" isBlocking="false"/>
		<stopFacility id="1222" x="6500.0" y="2200.0" linkRefId="6587_6588" isBlocking="false"/>
		<stopFacility id="1223" x="6500.0" y="2300.0" linkRefId="6588_6589" isBlocking="false"/>
		<stopFacility id="1224" x="6500.0" y="2400.0" linkRefId="6589_6590" isBlocking="false"/>
		<stopFacility id="1225" x="6500.0" y="2500.0" linkRefId="6590_6591" isBlocking="false"/>
		<stopFacility id="1226" x="6500.0" y="2600.0" linkRefId="6591_6592" isBlocking="false"/>
		<stopFacility id="1227" x="6500.0" y="2700.0" linkRefId="6592_6593" isBlocking="false"/>
		<stopFacility id="1228" x="6500.0" y="2800.0" linkRefId="6593_6594" isBlocking="false"/>
		<stopFacility id="1229" x="6500.0" y="2900.0" linkRefId="6594_6595" isBlocking="false"/>
		<stopFacility id="123" x="500.0" y="7700.0" linkRefId="582_581" isBlocking="false"/>
		<stopFacility id="1230" x="6500.0" y="3000.0" linkRefId="6595_6596" isBlocking="false"/>
		<stopFacility id="1231" x="6500.0" y="3100.0" linkRefId="6596_6597" isBlocking="false"/>
		<stopFacility id="1232" x="6500.0" y="3200.0" linkRefId="6597_6598" isBlocking="false"/>
		<stopFacility id="1233" x="6500.0" y="3300.0" linkRefId="6598_6599" isBlocking="false"/>
		<stopFacility id="1234" x="6500.0" y="3400.0" linkRefId="6599_6600" isBlocking="false"/>
		<stopFacility id="1235" x="6500.0" y="3500.0" linkRefId="6600_6601" isBlocking="false"/>
		<stopFacility id="1236" x="6500.0" y="3600.0" linkRefId="6601_6602" isBlocking="false"/>
		<stopFacility id="1237" x="6500.0" y="3700.0" linkRefId="6602_6603" isBlocking="false"/>
		<stopFacility id="1238" x="6500.0" y="3800.0" linkRefId="6603_6604" isBlocking="false"/>
		<stopFacility id="1239" x="6500.0" y="3900.0" linkRefId="6604_6605" isBlocking="false"/>
		<stopFacility id="124" x="500.0" y="7600.0" linkRefId="581_580" isBlocking="false"/>
		<stopFacility id="1240" x="6500.0" y="4000.0" linkRefId="6605_6606" isBlocking="false"/>
		<stopFacility id="1241" x="6500.0" y="4100.0" linkRefId="6606_6607" isBlocking="false"/>
		<stopFacility id="1242" x="6500.0" y="4200.0" linkRefId="6607_6608" isBlocking="false"/>
		<stopFacility id="1243" x="6500.0" y="4300.0" linkRefId="6608_6609" isBlocking="false"/>
		<stopFacility id="1244" x="6500.0" y="4400.0" linkRefId="6609_6610" isBlocking="false"/>
		<stopFacility id="1245" x="6500.0" y="4500.0" linkRefId="6610_6611" isBlocking="false"/>
		<stopFacility id="1246" x="6500.0" y="4600.0" linkRefId="6611_6612" isBlocking="false"/>
		<stopFacility id="1247" x="6500.0" y="4700.0" linkRefId="6612_6613" isBlocking="false"/>
		<stopFacility id="1248" x="6500.0" y="4800.0" linkRefId="6613_6614" isBlocking="false"/>
		<stopFacility id="1249" x="6500.0" y="4900.0" linkRefId="6614_6615" isBlocking="false"/>
		<stopFacility id="125" x="500.0" y="7500.0" linkRefId="580_579" isBlocking="false"/>
		<stopFacility id="1250" x="6500.0" y="5000.0" linkRefId="6615_6616" isBlocking="false"/>
		<stopFacility id="1251" x="6500.0" y="5100.0" linkRefId="6616_6617" isBlocking="false"/>
		<stopFacility id="1252" x="6500.0" y="5200.0" linkRefId="6617_6618" isBlocking="false"/>
		<stopFacility id="1253" x="6500.0" y="5300.0" linkRefId="6618_6619" isBlocking="false"/>
		<stopFacility id="1254" x="6500.0" y="5400.0" linkRefId="6619_6620" isBlocking="false"/>
		<stopFacility id="1255" x="6500.0" y="5500.0" linkRefId="6620_6621" isBlocking="false"/>
		<stopFacility id="1256" x="6500.0" y="5600.0" linkRefId="6621_6622" isBlocking="false"/>
		<stopFacility id="1257" x="6500.0" y="5700.0" linkRefId="6622_6623" isBlocking="false"/>
		<stopFacility id="1258" x="6500.0" y="5800.0" linkRefId="6623_6624" isBlocking="false"/>
		<stopFacility id="1259" x="6500.0" y="5900.0" linkRefId="6624_6625" isBlocking="false"/>
		<stopFacility id="126" x="500.0" y="7400.0" linkRefId="579_578" isBlocking="false"/>
		<stopFacility id="1260" x="6500.0" y="6000.0" linkRefId="6625_6626" isBlocking="false"/>
		<stopFacility id="1261" x="6500.0" y="6100.0" linkRefId="6626_6627" isBlocking="false"/>
		<stopFacility id="1262" x="6500.0" y="6200.0" linkRefId="6627_6628" isBlocking="false"/>
		<stopFacility id="1263" x="6500.0" y="6300.0" linkRefId="6628_6629" isBlocking="false"/>
		<stopFacility id="1264" x="6500.0" y="6400.0" linkRefId="6629_6630" isBlocking="false"/>
		<stopFacility id="1265" x="6500.0" y="6500.0" linkRefId="6630_6631" isBlocking="false"/>
		<stopFacility id="1266" x="6500.0" y="6600.0" linkRefId="6631_6632" isBlocking="false"/>
		<stopFacility id="1267" x="6500.0" y="6700.0" linkRefId="6632_6633" isBlocking="false"/>
		<stopFacility id="1268" x="6500.0" y="6800.0" linkRefId="6633_6634" isBlocking="false"/>
		<stopFacility id="1269" x="6500.0" y="6900.0" linkRefId="6634_6635" isBlocking="false"/>
		<stopFacility id="127" x="500.0" y="7300.0" linkRefId="578_577" isBlocking="false"/>
		<stopFacility id="1270" x="6500.0" y="7000.0" linkRefId="6635_6636" isBlocking="false"/>
		<stopFacility id="1271" x="6500.0" y="7100.0" linkRefId="6636_6637" isBlocking="false"/>
		<stopFacility id="1272" x="6500.0" y="7200.0" linkRefId="6637_6638" isBlocking="false"/>
		<stopFacility id="1273" x="6500.0" y="7300.0" linkRefId="6638_6639" isBlocking="false"/>
		<stopFacility id="1274" x="6500.0" y="7400.0" linkRefId="6639_6640" isBlocking="false"/>
		<stopFacility id="1275" x="6500.0" y="7500.0" linkRefId="6640_6641" isBlocking="false"/>
		<stopFacility id="1276" x="6500.0" y="7600.0" linkRefId="6641_6642" isBlocking="false"/>
		<stopFacility id="1277" x="6500.0" y="7700.0" linkRefId="6642_6643" isBlocking="false"/>
		<stopFacility id="1278" x="6500.0" y="7800.0" linkRefId="6643_6644" isBlocking="false"/>
		<stopFacility id="1279" x="6500.0" y="7900.0" linkRefId="6644_6645" isBlocking="false"/>
		<stopFacility id="128" x="500.0" y="7200.0" linkRefId="577_576" isBlocking="false"/>
		<stopFacility id="1280" x="6500.0" y="8000.0" linkRefId="6645_6646" isBlocking="false"/>
		<stopFacility id="1281" x="6500.0" y="8100.0" linkRefId="6646_6647" isBlocking="false"/>
		<stopFacility id="1282" x="6500.0" y="8200.0" linkRefId="6647_6648" isBlocking="false"/>
		<stopFacility id="1283" x="6500.0" y="8300.0" linkRefId="6648_6649" isBlocking="false"/>
		<stopFacility id="1284" x="6500.0" y="8400.0" linkRefId="6649_6650" isBlocking="false"/>
		<stopFacility id="1285" x="6500.0" y="8500.0" linkRefId="6650_6651" isBlocking="false"/>
		<stopFacility id="1286" x="6500.0" y="8600.0" linkRefId="6651_6652" isBlocking="false"/>
		<stopFacility id="1287" x="6500.0" y="8700.0" linkRefId="6652_6653" isBlocking="false"/>
		<stopFacility id="1288" x="6500.0" y="8800.0" linkRefId="6653_6654" isBlocking="false"/>
		<stopFacility id="1289" x="6500.0" y="8900.0" linkRefId="6654_6655" isBlocking="false"/>
		<stopFacility id="129" x="500.0" y="7100.0" linkRefId="576_575" isBlocking="false"/>
		<stopFacility id="1290" x="6500.0" y="9000.0" linkRefId="6655_6656" isBlocking="false"/>
		<stopFacility id="1291" x="6500.0" y="9100.0" linkRefId="6656_6657" isBlocking="false"/>
		<stopFacility id="1292" x="6500.0" y="9200.0" linkRefId="6657_6658" isBlocking="false"/>
		<stopFacility id="1293" x="6500.0" y="9300.0" linkRefId="6658_6659" isBlocking="false"/>