<?xml version="1.0" encoding="UTF-8"?>
<!DOCTYPE transitSchedule SYSTEM "http://www.matsim.org/files/dtd/transitSchedule_v2.dtd">

<transitSchedule>

	<transitStops>
		<stopFacility id="0" x="1500.0" y="1500.0" linkRefId="15_15west-15_15_pt" isBlocking="false"/>
		<stopFacility id="1" x="2500.0" y="1500.0" linkRefId="25_15west-25_15_pt" isBlocking="false"/>
		<stopFacility id="10" x="7500.0" y="1500.0" linkRefId="75_15east-75_15_pt" isBlocking="false"/>
		<stopFacility id="100" x="2500.0" y="3500.0" linkRefId="25_35west-25_35_pt" isBlocking="false"/>
		<stopFacility id="101" x="3500.0" y="3500.0" linkRefId="35_35west-35_35_pt" isBlocking="false"/>
		<stopFacility id="102" x="4500.0" y="3500.0" linkRefId="45_35west-45_35_pt" isBlocking="false"/>
		<stopFacility id="103" x="5500.0" y="3500.0" linkRefId="55_35west-55_35_pt" isBlocking="false"/>
		<stopFacility id="104" x="6500.0" y="3500.0" linkRefId="65_35west-65_35_pt" isBlocking="false"/>
		<stopFacility id="105" x="7500.0" y="3500.0" linkRefId="75_35west-75_35_pt" isBlocking="false"/>
		<stopFacility id="106" x="8500.0" y="3500.0" linkRefId="85_35west-85_35_pt" isBlocking="false"/>
		<stopFacility id="107" x="9500.0" y="3500.0" linkRefId="95_35west-95_35_pt" isBlocking="false"/>
		<stopFacility id="108" x="1500.0" y="4500.0" linkRefId="15_45west-15_45_pt" isBlocking="false"/>
		<stopFacility id="109" x="2500.0" y="4500.0" linkRefId="25_45west-25_45_pt" isBlocking="false"/>
		<stopFacility id="11" x="6500.0" y="1500.0" linkRefId="65_15east-65_15_pt" isBlocking="false"/>
		<stopFacility id="110" x="3500.0" y="4500.0" linkRefId="35_45west-35_45_pt" isBlocking="false"/>
		<stopFacility id="111" x="4500.0" y="4500.0" linkRefId="45_45west-45_45_pt" isBlocking="false"/>
		<stopFacility id="112" x="5500.0" y="4500.0" linkRefId="55_45west-55_45_pt" isBlocking="false"/>
		<stopFacility id="113" x="6500.0" y="4500.0" linkRefId="65_45west-65_45_pt" isBlocking="false"/>
		<stopFacility id="114" x="7500.0" y="4500.0" linkRefId="75_45west-75_45_pt" isBlocking="false"/>
		<stopFacility id="115" x="8500.0" y="4500.0" linkRefId="85_45west-85_45_pt" isBlocking="false"/>
		<stopFacility id="116" x="9500.0" y="4500.0" linkRefId="95_45west-95_45_pt" isBlocking="false"/>
		<stopFacility id="117" x="8500.0" y="4500.0" linkRefId="85_45east-85_45_pt" isBlocking="false"/>
		<stopFacility id="118" x="7500.0" y="4500.0" linkRefId="75_45east-75_45_pt" isBlocking="false"/>
		<stopFacility id="119" x="6500.0" y="4500.0" linkRefId="65_45east-65_45_pt" isBlocking="false"/>
		<stopFacility id="12" x="5500.0" y="1500.0" linkRefId="55_15east-55_15_pt" isBlocking="false"/>
		<stopFacility id="120" x="5500.0" y="4500.0" linkRefId="55_45east-55_45_pt" isBlocking="false"/>
		<stopFacility id="121" x="4500.0" y="4500.0" linkRefId="45_45east-45_45_pt" isBlocking="false"/>
		<stopFacility id="122" x="3500.0" y="4500.0" linkRefId="35_45east-35_45_pt" isBlocking="false"/>
		<stopFacility id="123" x="2500.0" y="4500.0" linkRefId="25_45east-25_45_pt" isBlocking="false"/>
		<stopFacility id="124" x="1500.0" y="4500.0" linkRefId="15_45east-15_45_pt" isBlocking="false"/>
		<stopFacility id="125" x="500.0" y="4500.0" linkRefId="5_45east-5_45_pt" isBlocking="false"/>
		<stopFacility id="126" x="8500.0" y="4500.0" linkRefId="85_45east-85_45_pt" isBlocking="false"/>
		<stopFacility id="127" x="7500.0" y="4500.0" linkRefId="75_45east-75_45_pt" isBlocking="false"/>
		<stopFacility id="128" x="6500.0" y="4500.0" linkRefId="65_45east-65_45_pt" isBlocking="false"/>
		<stopFacility id="129" x="5500.0" y="4500.0" linkRefId="55_45east-55_45_pt" isBlocking="false"/>
		<stopFacility id="13" x="4500.0" y="1500.0" linkRefId="45_15east-45_15_pt" isBlocking="false"/>
		<stopFacility id="130" x="4500.0" y="4500.0" linkRefId="45_45east-45_45_pt" isBlocking="false"/>
		<stopFacility id="131" x="3500.0" y="4500.0" linkRefId="35_45east-35_45_pt" isBlocking="false"/>
		<stopFacility id="132" x="2500.0" y="4500.0" linkRefId="25_45east-25_45_pt" isBlocking="false"/>
		<stopFacility id="133" x="1500.0" y="4500.0" linkRefId="15_45east-15_45_pt" isBlocking="false"/>
		<stopFacility id="134" x="500.0" y="4500.0" linkRefId="5_45east-5_45_pt" isBlocking="false"/>
		<stopFacility id="135" x="1500.0" y="4500.0" linkRefId="15_45west-15_45_pt" isBlocking="false"/>
		<stopFacility id="136" x="2500.0" y="4500.0" linkRefId="25_45west-25_45_pt" isBlocking="false"/>
		<stopFacility id="137" x="3500.0" y="4500.0" linkRefId="35_45west-35_45_pt" isBlocking="false"/>
		<stopFacility id="138" x="4500.0" y="4500.0" linkRefId="45_45west-45_45_pt" isBlocking="false"/>
		<stopFacility id="139" x="5500.0" y="4500.0" linkRefId="55_45west-55_45_pt" isBlocking="false"/>
		<stopFacility id="14" x="3500.0" y="1500.0" linkRefId="35_15east-35_15_pt" isBlocking="false"/>
		<stopFacility id="140" x="6500.0" y="4500.0" linkRefId="65_45west-65_45_pt" isBlocking="false"/>
		<stopFacility id="141" x="7500.0" y="4500.0" linkRefId="75_45west-75_45_pt" isBlocking="false"/>
		<stopFacility id="142" x="8500.0" y="4500.0" linkRefId="85_45west-85_45_pt" isBlocking="false"/>
		<stopFacility id="143" x="9500.0" y="4500.0" linkRefId="95_45west-95_45_pt" isBlocking="false"/>
		<stopFacility id="144" x="1500.0" y="500.0" linkRefId="15_5west-15_5_pt" isBlocking="false"/>
		<stopFacility id="145" x="2500.0" y="500.0" linkRefId="25_5west-25_5_pt" isBlocking="false"/>
		<stopFacility id="146" x="3500.0" y="500.0" linkRefId="35_5west-35_5_pt" isBlocking="false"/>
		<stopFacility id="147" x="4500.0" y="500.0" linkRefId="45_5west-45_5_pt" isBlocking="false"/>
		<stopFacility id="148" x="5500.0" y="500.0" linkRefId="55_5west-55_5_pt" isBlocking="false"/>
		<stopFacility id="149" x="6500.0" y="500.0" linkRefId="65_5west-65_5_pt" isBlocking="false"/>
		<stopFacility id="15" x="2500.0" y="1500.0" linkRefId="25_15east-25_15_pt" isBlocking="false"/>
		<stopFacility id="150" x="7500.0" y="500.0" linkRefId="75_5west-75_5_pt" isBlocking="false"/>
		<stopFacility id="151" x="8500.0" y="500.0" linkRefId="85_5west-85_5_pt" isBlocking="false"/>
		<stopFacility id="152" x="9500.0" y="500.0" linkRefId="95_5west-95_5_pt" isBlocking="false"/>
		<stopFacility id="153" x="8500.0" y="500.0" linkRefId="85_5east-85_5_pt" isBlocking="false"/>
		<stopFacility id="154" x="7500.0" y="500.0" linkRefId="75_5east-75_5_pt" isBlocking="false"/>
		<stopFacility id="155" x="6500.0" y="500.0" linkRefId="65_5east-65_5_pt" isBlocking="false"/>
		<stopFacility id="156" x="5500.0" y="500.0" linkRefId="55_5east-55_5_pt" isBlocking="false"/>
		<stopFacility id="157" x="4500.0" y="500.0" linkRefId="45_5east-45_5_pt" isBlocking="false"/>
		<stopFacility id="158" x="3500.0" y="500.0" linkRefId="35_5east-35_5_pt" isBlocking="false"/>
		<stopFacility id="159" x="2500.0" y="500.0" linkRefId="25_5east-25_5_pt" isBlocking="false"/>
		<stopFacility id="16" x="1500.0" y="1500.0" linkRefId="15_15east-15_15_pt" isBlocking="false"/>
		<stopFacility id="160" x="1500.0" y="500.0" linkRefId="15_5east-15_5_pt" isBlocking="false"/>
		<stopFacility id="161" x="500.0" y="500.0" linkRefId="5_5east-5_5_pt" isBlocking="false"/>
		<stopFacility id="162" x="8500.0" y="500.0" linkRefId="85_5east-85_5_pt" isBlocking="false"/>
		<stopFacility id="163" x="7500.0" y="500.0" linkRefId="75_5east-75_5_pt" isBlocking="false"/>
		<stopFacility id="164" x="6500.0" y="500.0" linkRefId="65_5east-65_5_pt" isBlocking="false"/>
		<stopFacility id="165" x="5500.0" y="500.0" linkRefId="55_5east-55_5_pt" isBlocking="false"/>
		<stopFacility id="166" x="4500.0" y="500.0" linkRefId="45_5east-45_5_pt" isBlocking="false"/>
		<stopFacility id="167" x="3500.0" y="500.0" linkRefId="35_5east-35_5_pt" isBlocking="false"/>
		<stopFacility id="168" x="2500.0" y="500.0" linkRefId="25_5east-25_5_pt" isBlocking="false"/>
		<stopFacility id="169" x="1500.0" y="500.0" linkRefId="15_5east-15_5_pt" isBlocking="false"/>
		<stopFacility id="17" x="500.0" y="1500.0" linkRefId="5_15east-5_15_pt" isBlocking="false"/>
		<stopFacility id="170" x="500.0" y="500.0" linkRefId="5_5east-5_5_pt" isBlocking="false"/>
		<stopFacility id="171" x="1500.0" y="500.0" linkRefId="15_5west-15_5_pt" isBlocking="false"/>
		<stopFacility id="172" x="2500.0" y="500.0" linkRefId="25_5west-25_5_pt" isBlocking="false"/>
		<stopFacility id="173" x="3500.0" y="500.0" linkRefId="35_5west-35_5_pt" isBlocking="false"/>
		<stopFacility id="174" x="4500.0" y="500.0" linkRefId="45_5west-45_5_pt" isBlocking="false"/>
		<stopFacility id="175" x="5500.0" y="500.0" linkRefId="55_5west-55_5_pt" isBlocking="false"/>
		<stopFacility id="176" x="6500.0" y="500.0" linkRefId="65_5west-65_5_pt" isBlocking="false"/>
		<stopFacility id="177" x="7500.0" y="500.0" linkRefId="75_5west-75_5_pt" isBlocking="false"/>
		<stopFacility id="178" x="8500.0" y="500.0" linkRefId="85_5west-85_5_pt" isBlocking="false"/>
		<stopFacility id="179" x="9500.0" y="500.0" linkRefId="95_5west-95_5_pt" isBlocking="false"/>
		<stopFacility id="18" x="8500.0" y="1500.0" linkRefId="85_15east-85_15_pt" isBlocking="false"/>
		<stopFacility id="180" x="1500.0" y="5500.0" linkRefId="15_55west-15_55_pt" isBlocking="false"/>
		<stopFacility id="181" x="2500.0" y="5500.0" linkRefId="25_55west-25_55_pt" isBlocking="false"/>
		<stopFacility id="182" x="3500.0" y="5500.0" linkRefId="35_55west-35_55_pt" isBlocking="false"/>
		<stopFacility id="183" x="4500.0" y="5500.0" linkRefId="45_55west-45_55_pt" isBlocking="false"/>
		<stopFacility id="184" x="5500.0" y="5500.0" linkRefId="55_55west-55_55_pt" isBlocking="false"/>
		<stopFacility id="185" x="6500.0" y="5500.0" linkRefId="65_55west-65_55_pt" isBlocking="false"/>
		<stopFacility id="186" x="7500.0" y="5500.0" linkRefId="75_55west-75_55_pt" isBlocking="false"/>
		<stopFacility id="187" x="8500.0" y="5500.0" linkRefId="85_55west-85_55_pt" isBlocking="false"/>
		<stopFacility id="188" x="9500.0" y="5500.0" linkRefId="95_55west-95_55_pt" isBlocking="false"/>
		<stopFacility id="189" x="8500.0" y="5500.0" linkRefId="85_55east-85_55_pt" isBlocking="false"/>
		<stopFacility id="19" x="7500.0" y="1500.0" linkRefId="75_15east-75_15_pt" isBlocking="false"/>
		<stopFacility id="190" x="7500.0" y="5500.0" linkRefId="75_55east-75_55_pt" isBlocking="false"/>
		<stopFacility id="191" x="6500.0" y="5500.0" linkRefId="65_55east-65_55_pt" isBlocking="false"/>
		<stopFacility id="192" x="5500.0" y="5500.0" linkRefId="55_55east-55_55_pt" isBlocking="false"/>
		<stopFacility id="193" x="4500.0" y="5500.0" linkRefId="45_55east-45_55_pt" isBlocking="false"/>
		<stopFacility id="194" x="3500.0" y="5500.0" linkRefId="35_55east-35_55_pt" isBlocking="false"/>
		<stopFacility id="195" x="2500.0" y="5500.0" linkRefId="25_55east-25_55_pt" isBlocking="false"/>
		<stopFacility id="196" x="1500.0" y="5500.0" linkRefId="15_55east-15_55_pt" isBlocking="false"/>
		<stopFacility id="197" x="500.0" y="5500.0" linkRefId="5_55east-5_55_pt" isBlocking="false"/>
		<stopFacility id="198" x="8500.0" y="5500.0" linkRefId="85_55east-85_55_pt" isBlocking="false"/>
		<stopFacility id="199" x="7500.0" y="5500.0" linkRefId="75_55east-75_55_pt" isBlocking="false"/>
		<stopFacility id="2" x="3500.0" y="1500.0" linkRefId="35_15west-35_15_pt" isBlocking="false"/>
		<stopFacility id="20" x="6500.0" y="1500.0" linkRefId="65_15east-65_15_pt" isBlocking="false"/>
		<stopFacility id="200" x="6500.0" y="5500.0" linkRefId="65_55east-65_55_pt" isBlocking="false"/>
		<stopFacility id="201" x="5500.0" y="5500.0" linkRefId="55_55east-55_55_pt" isBlocking="false"/>
		<stopFacility id="202" x="4500.0" y="5500.0" linkRefId="45_55east-45_55_pt" isBlocking="false"/>
		<stopFacility id="203" x="3500.0" y="5500.0" linkRefId="35_55east-35_55_pt" isBlocking="false"/>
		<stopFacility id="204" x="2500.0" y="5500.0" linkRefId="25_55east-25_55_pt" isBlocking="false"/>
		<stopFacility id="205" x="1500.0" y="5500.0" linkRefId="15_55east-15_55_pt" isBlocking="false"/>
		<stopFacility id="206" x="500.0" y="5500.0" linkRefId="5_55east-5_55_pt" isBlocking="false"/>
		<stopFacility id="207" x="1500.0" y="5500.0" linkRefId="15_55west-15_55_pt" isBlocking="false"/>
		<stopFacility id="208" x="2500.0" y="5500.0" linkRefId="25_55west-25_55_pt" isBlocking="false"/>
		<stopFacility id="209" x="3500.0" y="5500.0" linkRefId="35_55west-35_55_pt" isBlocking="false"/>
		<stopFacility id="21" x="5500.0" y="1500.0" linkRefId="55_15east-55_15_pt" isBlocking="false"/>
		<stopFacility id="210" x="4500.0" y="5500.0" linkRefId="45_55west-45_55_pt" isBlocking="false"/>
		<stopFacility id="211" x="5500.0" y="5500.0" linkRefId="55_55west-55_55_pt" isBlocking="false"/>
		<stopFacility id="212" x="6500.0" y="5500.0" linkRefId="65_55west-65_55_pt" isBlocking="false"/>
		<stopFacility id="213" x="7500.0" y="5500.0" linkRefId="75_55west-75_55_pt" isBlocking="false"/>
		<stopFacility id="214" x="8500.0" y="5500.0" linkRefId="85_55west-85_55_pt" isBlocking="false"/>
		<stopFacility id="215" x="9500.0" y="5500.0" linkRefId="95_55west-95_55_pt" isBlocking="false"/>
		<stopFacility id="216" x="1500.0" y="6500.0" linkRefId="15_65west-15_65_pt" isBlocking="false"/>
		<stopFacility id="217" x="2500.0" y="6500.0" linkRefId="25_65west-25_65_pt" isBlocking="false"/>
		<stopFacility id="218" x="3500.0" y="6500.0" linkRefId="35_65west-35_65_pt" isBlocking="false"/>
		<stopFacility id="219" x="4500.0" y="6500.0" linkRefId="45_65west-45_65_pt" isBlocking="false"/>
		<stopFacility id="22" x="4500.0" y="1500.0" linkRefId="45_15east-45_15_pt" isBlocking="false"/>
		<stopFacility id="220" x="5500.0" y="6500.0" linkRefId="55_65west-55_65_pt" isBlocking="false"/>
		<stopFacility id="221" x="6500.0" y="6500.0" linkRefId="65_65west-65_65_pt" isBlocking="false"/>
		<stopFacility id="222" x="7500.0" y="6500.0" linkRefId="75_65west-75_65_pt" isBlocking="false"/>
		<stopFacility id="223" x="8500.0" y="6500.0" linkRefId="85_65west-85_65_pt" isBlocking="false"/>
		<stopFacility id="224" x="9500.0" y="6500.0" linkRefId="95_65west-95_65_pt" isBlocking="false"/>
		<stopFacility id="225" x="8500.0" y="6500.0" linkRefId="85_65east-85_65_pt" isBlocking="false"/>
		<stopFacility id="226" x="7500.0" y="6500.0" linkRefId="75_65east-75_65_pt" isBlocking="false"/>
		<stopFacility id="227" x="6500.0" y="6500.0" linkRefId="65_65east-65_65_pt" isBlocking="false"/>
		<stopFacility id="228" x="5500.0" y="6500.0" linkRefId="55_65east-55_65_pt" isBlocking="false"/>
		<stopFacility id="229" x="4500.0" y="6500.0" linkRefId="45_65east-45_65_pt" isBlocking="false"/>
		<stopFacility id="23" x="3500.0" y="1500.0" linkRefId="35_15east-35_15_pt" isBlocking="false"/>
		<stopFacility id="230" x="3500.0" y="6500.0" linkRefId="35_65east-35_65_pt" isBlocking="false"/>
		<stopFacility id="231" x="2500.0" y="6500.0" linkRefId="25_65east-25_65_pt" isBlocking="false"/>
		<stopFacility id="232" x="1500.0" y="6500.0" linkRefId="15_65east-15_65_pt" isBlocking="false"/>
		<stopFacility id="233" x="500.0" y="6500.0" linkRefId="5_65east-5_65_pt" isBlocking="false"/>
		<stopFacility id="234" x="8500.0" y="6500.0" linkRefId="85_65east-85_65_pt" isBlocking="false"/>
		<stopFacility id="235" x="7500.0" y="6500.0" linkRefId="75_65east-75_65_pt" isBlocking="false"/>
		<stopFacility id="236" x="6500.0" y="6500.0" linkRefId="65_65east-65_65_pt" isBlocking="false"/>
		<stopFacility id="237" x="5500.0" y="6500.0" linkRefId="55_65east-55_65_pt" isBlocking="false"/>
		<stopFacility id="238" x="4500.0" y="6500.0" linkRefId="45_65east-45_65_pt" isBlocking="false"/>
		<stopFacility id="239" x="3500.0" y="6500.0" linkRefId="35_65east-35_65_pt" isBlocking="false"/>
		<stopFacility id="24" x="2500.0" y="1500.0" linkRefId="25_15east-25_15_pt" isBlocking="false"/>
		<stopFacility id="240" x="2500.0" y="6500.0" linkRefId="25_65east-25_65_pt" isBlocking="false"/>
		<stopFacility id="241" x="1500.0" y="6500.0" linkRefId="15_65east-15_65_pt" isBlocking="false"/>
		<stopFacility id="242" x="500.0" y="6500.0" linkRefId="5_65east-5_65_pt" isBlocking="false"/>
		<stopFacility id="243" x="1500.0" y="6500.0" linkRefId="15_65west-15_65_pt" isBlocking="false"/>
		<stopFacility id="244" x="2500.0" y="6500.0" linkRefId="25_65west-25_65_pt" isBlocking="false"/>
		<stopFacility id="245" x="3500.0" y="6500.0" linkRefId="35_65west-35_65_pt" isBlocking="false"/>
		<stopFacility id="246" x="4500.0" y="6500.0" linkRefId="45_65west-45_65_pt" isBlocking="false"/>
		<stopFacility id="247" x="5500.0" y="6500.0" linkRefId="55_65west-55_65_pt" isBlocking="false"/>
		<stopFacility id="248" x="6500.0" y="6500.0" linkRefId="65_65west-65_65_pt" isBlocking="false"/>
		<stopFacility id="249" x="7500.0" y="6500.0" linkRefId="75_65west-75_65_pt" isBlocking="false"/>
		<stopFacility id="25" x="1500.0" y="1500.0" linkRefId="15_15east-15_15_pt" isBlocking="false"/>
		<stopFacility id="250" x="8500.0" y="6500.0" linkRefId="85_65west-85_65_pt" isBlocking="false"/>
		<stopFacility id="251" x="9500.0" y="6500.0" linkRefId="95_65west-95_65_pt" isBlocking="false"/>
		<stopFacility id="252" x="1500.0" y="7500.0" linkRefId="15_75west-15_75_pt" isBlocking="false"/>
		<stopFacility id="253" x="2500.0" y="7500.0" linkRefId="25_75west-25_75_pt" isBlocking="false"/>
		<stopFacility id="254" x="3500.0" y="7500.0" linkRefId="35_75west-35_75_pt" isBlocking="false"/>
		<stopFacility id="255" x="4500.0" y="7500.0" linkRefId="45_75west-45_75_pt" isBlocking="false"/>
		<stopFacility id="256" x="5500.0" y="7500.0" linkRefId="55_75west-55_75_pt" isBlocking="false"/>
		<stopFacility id="257" x="6500.0" y="7500.0" linkRefId="65_75west-65_75_pt" isBlocking="false"/>
		<stopFacility id="258" x="7500.0" y="7500.0" linkRefId="75_75west-75_75_pt" isBlocking="false"/>
		<stopFacility id="259" x="8500.0" y="7500.0" linkRefId="85_75west-85_75_pt" isBlocking="false"/>
		<stopFacility id="26" x="500.0" y="1500.0" linkRefId="5_15east-5_15_pt" isBlocking="false"/>
		<stopFacility id="260" x="9500.0" y="7500.0" linkRefId="95_75west-95_75_pt" isBlocking="false"/>
		<stopFacility id="261" x="8500.0" y="7500.0" linkRefId="85_75east-85_75_pt" isBlocking="false"/>
		<stopFacility id="262" x="7500.0" y="7500.0" linkRefId="75_75east-75_75_pt" isBlocking="false"/>
		<stopFacility id="263" x="6500.0" y="7500.0" linkRefId="65_75east-65_75_pt" isBlocking="false"/>
		<stopFacility id="264" x="5500.0" y="7500.0" linkRefId="55_75east-55_75_pt" isBlocking="false"/>
		<stopFacility id="265" x="4500.0" y="7500.0" linkRefId="45_75east-45_75_pt" isBlocking="false"/>
		<stopFacility id="266" x="3500.0" y="7500.0" linkRefId="35_75east-35_75_pt" isBlocking="false"/>
		<stopFacility id="267" x="2500.0" y="7500.0" linkRefId="25_75east-25_75_pt" isBlocking="false"/>
		<stopFacility id="268" x="1500.0" y="7500.0" linkRefId="15_75east-15_75_pt" isBlocking="false"/>
		<stopFacility id="269" x="500.0" y="7500.0" linkRefId="5_75east-5_75_pt" isBlocking="false"/>
		<stopFacility id="27" x="1500.0" y="1500.0" linkRefId="15_15west-15_15_pt" isBlocking="false"/>
		<stopFacility id="270" x="8500.0" y="7500.0" linkRefId="85_75east-85_75_pt" isBlocking="false"/>
		<stopFacility id="271" x="7500.0" y="7500.0" linkRefId="75_75east-75_75_pt" isBlocking="false"/>
		<stopFacility id="272" x="6500.0" y="7500.0" linkRefId="65_75east-65_75_pt" isBlocking="false"/>
		<stopFacility id="273" x="5500.0" y="7500.0" linkRefId="55_75east-55_75_pt" isBlocking="false"/>
		<stopFacility id="274" x="4500.0" y="7500.0" linkRefId="45_75east-45_75_pt" isBlocking="false"/>
		<stopFacility id="275" x="3500.0" y="7500.0" linkRefId="35_75east-35_75_pt" isBlocking="false"/>
		<stopFacility id="276" x="2500.0" y="7500.0" linkRefId="25_75east-25_75_pt" isBlocking="false"/>
		<stopFacility id="277" x="1500.0" y="7500.0" linkRefId="15_75east-15_75_pt" isBlocking="false"/>
		<stopFacility id="278" x="500.0" y="7500.0" linkRefId="5_75east-5_75_pt" isBlocking="false"/>
		<stopFacility id="279" x="1500.0" y="7500.0" linkRefId="15_75west-15_75_pt" isBlocking="false"/>
		<stopFacility id="28" x="2500.0" y="1500.0" linkRefId="25_15west-25_15_pt" isBlocking="false"/>
		<stopFacility id="280" x="2500.0" y="7500.0" linkRefId="25_75west-25_75_pt" isBlocking="false"/>
		<stopFacility id="281" x="3500.0" y="7500.0" linkRefId="35_75west-35_75_pt" isBlocking="false"/>
		<stopFacility id="282" x="4500.0" y="7500.0" linkRefId="45_75west-45_75_pt" isBlocking="false"/>
		<stopFacility id="283" x="5500.0" y="7500.0" linkRefId="55_75west-55_75_pt" isBlocking="false"/>
		<stopFacility id="284" x="6500.0" y="7500.0" linkRefId="65_75west-65_75_pt" isBlocking="false"/>
		<stopFacility id="285" x="7500.0" y="7500.0" linkRefId="75_75west-75_75_pt" isBlocking="false"/>
		<stopFacility id="286" x="8500.0" y="7500.0" linkRefId="85_75west-85_75_pt" isBlocking="false"/>
		<stopFacility id="287" x="9500.0" y="7500.0" linkRefId="95_75west-95_75_pt" isBlocking="false"/>
		<stopFacility id="288" x="1500.0" y="8500.0" linkRefId="15_85west-15_85_pt" isBlocking="false"/>
		<stopFacility id="289" x="2500.0" y="8500.0" linkRefId="25_85west-25_85_pt" isBlocking="false"/>
		<stopFacility id="29" x="3500.0" y="1500.0" linkRefId="35_15west-35_15_pt" isBlocking="false"/>
		<stopFacility id="290" x="3500.0" y="8500.0" linkRefId="35_85west-35_85_pt" isBlocking="false"/>
		<stopFacility id="291" x="4500.0" y="8500.0" linkRefId="45_85west-45_85_pt" isBlocking="false"/>
		<stopFacility id="292" x="5500.0" y="8500.0" linkRefId="55_85west-55_85_pt" isBlocking="false"/>
		<stopFacility id="293" x="6500.0" y="8500.0" linkRefId="65_85west-65_85_pt" isBlocking="false"/>
		<stopFacility id="294" x="7500.0" y="8500.0" linkRefId="75_85west-75_85_pt" isBlocking="false"/>
		<stopFacility id="295" x="8500.0" y="8500.0" linkRefId="85_85west-85_85_pt" isBlocking="false"/>
		<stopFacility id="296" x="9500.0" y="8500.0" linkRefId="95_85west-95_85_pt" isBlocking="false"/>
		<stopFacility id="297" x="8500.0" y="8500.0" linkRefId="85_85east-85_85_pt" isBlocking="false"/>
		<stopFacility id="298" x="7500.0" y="8500.0" linkRefId="75_85east-75_85_pt" isBlocking="false"/>
		<stopFacility id="299" x="6500.0" y="8500.0" linkRefId="65_85east-65_85_pt" isBlocking="false"/>
		<stopFacility id="3" x="4500.0" y="1500.0" linkRefId="45_15west-45_15_pt" isBlocking="false"/>
		<stopFacility id="30" x="4500.0" y="1500.0" linkRefId="45_15west-45_15_pt" isBlocking="false"/>
		<stopFacility id="300" x="5500.0" y="8500.0" linkRefId="55_85east-55_85_pt" isBlocking="false"/>
		<stopFacility id="301" x="4500.0" y="8500.0" linkRefId="45_85east-45_85_pt" isBlocking="false"/>
		<stopFacility id="302" x="3500.0" y="8500.0" linkRefId="35_85east-35_85_pt" isBlocking="false"/>
		<stopFacility id="303" x="2500.0" y="8500.0" linkRefId="25_85east-25_85_pt" isBlocking="false"/>
		<stopFacility id="304" x="1500.0" y="8500.0" linkRefId="15_85east-15_85_pt" isBlocking="false"/>
		<stopFacility id="305" x="500.0" y="8500.0" linkRefId="5_85east-5_85_pt" isBlocking="false"/>
		<stopFacility id="306" x="8500.0" y="8500.0" linkRefId="85_85east-85_85_pt" isBlocking="false"/>
		<stopFacility id="307" x="7500.0" y="8500.0" linkRefId="75_85east-75_85_pt" isBlocking="false"/>
		<stopFacility id="308" x="6500.0" y="8500.0" linkRefId="65_85east-65_85_pt" isBlocking="false"/>
		<stopFacility id="309" x="5500.0" y="8500.0" linkRefId="55_85east-55_85_pt" isBlocking="false"/>
		<stopFacility id="31" x="5500.0" y="1500.0" linkRefId="55_15west-55_15_pt" isBlocking="false"/>
		<stopFacility id="310" x="4500.0" y="8500.0" linkRefId="45_85east-45_85_pt" isBlocking="false"/>
		<stopFacility id="311" x="3500.0" y="8500.0" linkRefId="35_85east-35_85_pt" isBlocking="false"/>
		<stopFacility id="312" x="2500.0" y="8500.0" linkRefId="25_85east-25_85_pt" isBlocking="false"/>
		<stopFacility id="313" x="1500.0" y="8500.0" linkRefId="15_85east-15_85_pt" isBlocking="false"/>
		<stopFacility id="314" x="500.0" y="8500.0" linkRefId="5_85east-5_85_pt" isBlocking="false"/>
		<stopFacility id="315" x="1500.0" y="8500.0" linkRefId="15_85west-15_85_pt" isBlocking="false"/>
		<stopFacility id="316" x="2500.0" y="8500.0" linkRefId="25_85west-25_85_pt" isBlocking="false"/>
		<stopFacility id="317" x="3500.0" y="8500.0" linkRefId="35_85west-35_85_pt" isBlocking="false"/>
		<stopFacility id="318" x="4500.0" y="8500.0" linkRefId="45_85west-45_85_pt" isBlocking="false"/>
		<stopFacility id="319" x="5500.0" y="8500.0" linkRefId="55_85west-55_85_pt" isBlocking="false"/>
		<stopFacility id="32" x="6500.0" y="1500.0" linkRefId="65_15west-65_15_pt" isBlocking="false"/>
		<stopFacility id="320" x="6500.0" y="8500.0" linkRefId="65_85west-65_85_pt" isBlocking="false"/>
		<stopFacility id="321" x="7500.0" y="8500.0" linkRefId="75_85west-75_85_pt" isBlocking="false"/>
		<stopFacility id="322" x="8500.0" y="8500.0" linkRefId="85_85west-85_85_pt" isBlocking="false"/>
		<stopFacility id="323" x="9500.0" y="8500.0" linkRefId="95_85west-95_85_pt" isBlocking="false"/>
		<stopFacility id="324" x="1500.0" y="9500.0" linkRefId="15_95west-15_95_pt" isBlocking="false"/>
		<stopFacility id="325" x="2500.0" y="9500.0" linkRefId="25_95west-25_95_pt" isBlocking="false"/>
		<stopFacility id="326" x="3500.0" y="9500.0" linkRefId="35_95west-35_95_pt" isBlocking="false"/>
		<stopFacility id="327" x="4500.0" y="9500.0" linkRefId="45_95west-45_95_pt" isBlocking="false"/>
		<stopFacility id="328" x="5500.0" y="9500.0" linkRefId="55_95west-55_95_pt" isBlocking="false"/>
		<stopFacility id="329" x="6500.0" y="9500.0" linkRefId="65_95west-65_95_pt" isBlocking="false"/>
		<stopFacility id="33" x="7500.0" y="1500.0" linkRefId="75_15west-75_15_pt" isBlocking="false"/>
		<stopFacility id="330" x="7500.0" y="9500.0" linkRefId="75_95west-75_95_pt" isBlocking="false"/>
		<stopFacility id="331" x="8500.0" y="9500.0" linkRefId="85_95west-85_95_pt" isBlocking="false"/>
		<stopFacility id="332" x="9500.0" y="9500.0" linkRefId="95_95west-95_95_pt" isBlocking="false"/>
		<stopFacility id="333" x="8500.0" y="9500.0" linkRefId="85_95east-85_95_pt" isBlocking="false"/>
		<stopFacility id="334" x="7500.0" y="9500.0" linkRefId="75_95east-75_95_pt" isBlocking="false"/>
		<stopFacility id="335" x="6500.0" y="9500.0" linkRefId="65_95east-65_95_pt" isBlocking="false"/>
		<stopFacility id="336" x="5500.0" y="9500.0" linkRefId="55_95east-55_95_pt" isBlocking="false"/>
		<stopFacility id="337" x="4500.0" y="9500.0" linkRefId="45_95east-45_95_pt" isBlocking="false"/>
		<stopFacility id="338" x="3500.0" y="9500.0" linkRefId="35_95east-35_95_pt" isBlocking="false"/>
		<stopFacility id="339" x="2500.0" y="9500.0" linkRefId="25_95east-25_95_pt" isBlocking="false"/>
		<stopFacility id="34" x="8500.0" y="1500.0" linkRefId="85_15west-85_15_pt" isBlocking="false"/>
		<stopFacility id="340" x="1500.0" y="9500.0" linkRefId="15_95east-15_95_pt" isBlocking="false"/>
		<stopFacility id="341" x="500.0" y="9500.0" linkRefId="5_95east-5_95_pt" isBlocking="false"/>
		<stopFacility id="342" x="8500.0" y="9500.0" linkRefId="85_95east-85_95_pt" isBlocking="false"/>
		<stopFacility id="343" x="7500.0" y="9500.0" linkRefId="75_95east-75_95_pt" isBlocking="false"/>
		<stopFacility id="344" x="6500.0" y="9500.0" linkRefId="65_95east-65_95_pt" isBlocking="false"/>
		<stopFacility id="345" x="5500.0" y="9500.0" linkRefId="55_95east-55_95_pt" isBlocking="false"/>
		<stopFacility id="346" x="4500.0" y="9500.0" linkRefId="45_95east-45_95_pt" isBlocking="false"/>
		<stopFacility id="347" x="3500.0" y="9500.0" linkRefId="35_95east-35_95_pt" isBlocking="false"/>
		<stopFacility id="348" x="2500.0" y="9500.0" linkRefId="25_95east-25_95_pt" isBlocking="false"/>
		<stopFacility id="349" x="1500.0" y="9500.0" linkRefId="15_95east-15_95_pt" isBlocking="false"/>
		<stopFacility id="35" x="9500.0" y="1500.0" linkRefId="95_15west-95_15_pt" isBlocking="false"/>
		<stopFacility id="350" x="500.0" y="9500.0" linkRefId="5_95east-5_95_pt" isBlocking="false"/>
		<stopFacility id="351" x="1500.0" y="9500.0" linkRefId="15_95west-15_95_pt" isBlocking="false"/>
		<stopFacility id="352" x="2500.0" y="9500.0" linkRefId="25_95west-25_95_pt" isBlocking="false"/>
		<stopFacility id="353" x="3500.0" y="9500.0" linkRefId="35_95west-35_95_pt" isBlocking="false"/>
		<stopFacility id="354" x="4500.0" y="9500.0" linkRefId="45_95west-45_95_pt" isBlocking="false"/>
		<stopFacility id="355" x="5500.0" y="9500.0" linkRefId="55_95west-55_95_pt" isBlocking="false"/>
		<stopFacility id="356" x="6500.0" y="9500.0" linkRefId="65_95west-65_95_pt" isBlocking="false"/>
		<stopFacility id="357" x="7500.0" y="9500.0" linkRefId="75_95west-75_95_pt" isBlocking="false"/>
		<stopFacility id="358" x="8500.0" y="9500.0" linkRefId="85_95west-85_95_pt" isBlocking="false"/>
		<stopFacility id="359" x="9500.0" y="9500.0" linkRefId="95_95west-95_95_pt" isBlocking="false"/>
		<stopFacility id="36" x="1500.0" y="2500.0" linkRefId="15_25west-15_25_pt" isBlocking="false"/>
		<stopFacility id="360" x="1500.0" y="1500.0" linkRefId="15_15south-15_15_pt" isBlocking="false"/>
		<stopFacility id="361" x="1500.0" y="2500.0" linkRefId="15_25south-15_25_pt" isBlocking="false"/>
		<stopFacility id="362" x="1500.0" y="3500.0" linkRefId="15_35south-15_35_pt" isBlocking="false"/>
		<stopFacility id="363" x="1500.0" y="4500.0" linkRefId="15_45south-15_45_pt" isBlocking="false"/>
		<stopFacility id="364" x="1500.0" y="5500.0" linkRefId="15_55south-15_55_pt" isBlocking="false"/>
		<stopFacility id="365" x="1500.0" y="6500.0" linkRefId="15_65south-15_65_pt" isBlocking="false"/>
		<stopFacility id="366" x="1500.0" y="7500.0" linkRefId="15_75south-15_75_pt" isBlocking="false"/>
		<stopFacility id="367" x="1500.0" y="8500.0" linkRefId="15_85south-15_85_pt" isBlocking="false"/>
		<stopFacility id="368" x="1500.0" y="9500.0" linkRefId="15_95south-15_95_pt" isBlocking="false"/>
		<stopFacility id="369" x="1500.0" y="8500.0" linkRefId="15_85north-15_85_pt" isBlocking="false"/>
		<stopFacility id="37" x="2500.0" y="2500.0" linkRefId="25_25west-25_25_pt" isBlocking="false"/>
		<stopFacility id="370" x="1500.0" y="7500.0" linkRefId="15_75north-15_75_pt" isBlocking="false"/>