<?xml version="1.0" encoding="UTF-8"?>
<!DOCTYPE transitSchedule SYSTEM "http://www.matsim.org/files/dtd/transitSchedule_v2.dtd">

<transitSchedule>

	<transitStops>
		<stopFacility id="0" x="100.0" y="0.0" linkRefId="101_102" isBlocking="false"/>
		<stopFacility id="1" x="100.0" y="100.0" linkRefId="102_103" isBlocking="false"/>
		<stopFacility id="10" x="100.0" y="1000.0" linkRefId="111_112" isBlocking="false"/>
		<stopFacility id="100" x="100.0" y="10000.0" linkRefId="201_200" isBlocking="false"/>
		<stopFacility id="1000" x="5100.0" y="0.0" linkRefId="5151_5152" isBlocking="false"/>
		<stopFacility id="1001" x="5100.0" y="100.0" linkRefId="5152_5153" isBlocking="false"/>
		<stopFacility id="1002" x="5100.0" y="200.0" linkRefId="5153_5154" isBlocking="false"/>
		<stopFacility id="1003" x="5100.0" y="300.0" linkRefId="5154_5155" isBlocking="false"/>
		<stopFacility id="1004" x="5100.0" y="400.0" linkRefId="5155_5156" isBlocking="false"/>
		<stopFacility id="1005" x="5100.0" y="500.0" linkRefId="5156_5157" isBlocking="false"/>
		<stopFacility id="1006" x="5100.0" y="600.0" linkRefId="5157_5158" isBlocking="false"/>
		<stopFacility id="1007" x="5100.0" y="700.0" linkRefId="5158_5159" isBlocking="false"/>
		<stopFacility id="1008" x="5100.0" y="800.0" linkRefId="5159_5160" isBlocking="false"/>
		<stopFacility id="1009" x="5100.0" y="900.0" linkRefId="5160_5161" isBlocking="false"/>
		<stopFacility id="101" x="100.0" y="9900.0" linkRefId="200_199" isBlocking="false"/>
		<stopFacility id="1010" x="5100.0" y="1000.0" linkRefId="5161_5162" isBlocking="false"/>
		<stopFacility id="1011" x="5100.0" y="1100.0" linkRefId="5162_5163" isBlocking="false"/>
		<stopFacility id="1012" x="5100.0" y="1200.0" linkRefId="5163_5164" isBlocking="false"/>
		<stopFacility id="1013" x="5100.0" y="1300.0" linkRefId="5164_5165" isBlocking="false"/>
		<stopFacility id="1014" x="5100.0" y="1400.0" linkRefId="5165_5166" isBlocking="false"/>
		<stopFacility id="1015" x="5100.0" y="1500.0" linkRefId="5166_5167" isBlocking="false"/>
		<stopFacility id="1016" x="5100.0" y="1600.0" linkRefId="5167_5168" isBlocking="false"/>
		<stopFacility id="1017" x="5100.0" y="1700.0" linkRefId="5168_5169" isBlocking="false"/>
		<stopFacility id="1018" x="5100.0" y="1800.0" linkRefId="5169_5170" isBlocking="false"/>
		<stopFacility id="1019" x="5100.0" y="1900.0" linkRefId="5170_5171" isBlocking="false"/>
		<stopFacility id="102" x="100.0" y="9800.0" linkRefId="199_198" isBlocking="false"/>
		<stopFacility id="1020" x="5100.0" y="2000.0" linkRefId="5171_5172" isBlocking="false"/>
		<stopFacility id="1021" x="5100.0" y="2100.0" linkRefId="5172_5173" isBlocking="false"/>
		<stopFacility id="1022" x="5100.0" y="2200.0" linkRefId="5173_5174" isBlocking="false"/>
		<stopFacility id="1023" x="5100.0" y="2300.0" linkRefId="5174_5175" isBlocking="false"/>
		<stopFacility id="1024" x="5100.0" y="2400.0" linkRefId="5175_5176" isBlocking="false"/>
		<stopFacility id="1025" x="5100.0" y="2500.0" linkRefId="5176_5177" isBlocking="false"/>
		<stopFacility id="1026" x="5100.0" y="2600.0" linkRefId="5177_5178" isBlocking="false"/>
		<stopFacility id="1027" x="5100.0" y="2700.0" linkRefId="5178_5179" isBlocking="false"/>
		<stopFacility id="1028" x="5100.0" y="2800.0" linkRefId="5179_5180" isBlocking="false"/>
		<stopFacility id="1029" x="5100.0" y="2900.0" linkRefId="5180_5181" isBlocking="false"/>
		<stopFacility id="103" x="100.0" y="9700.0" linkRefId="198_197" isBlocking="false"/>
		<stopFacility id="1030" x="5100.0" y="3000.0" linkRefId="5181_5182" isBlocking="false"/>
		<stopFacility id="1031" x="5100.0" y="3100.0" linkRefId="5182_5183" isBlocking="false"/>
		<stopFacility id="1032" x="5100.0" y="3200.0" linkRefId="5183_5184" isBlocking="false"/>
		<stopFacility id="1033" x="5100.0" y="3300.0" linkRefId="5184_5185" isBlocking="false"/>
		<stopFacility id="1034" x="5100.0" y="3400.0" linkRefId="5185_5186" isBlocking="false"/>
		<stopFacility id="1035" x="5100.0" y="3500.0" linkRefId="5186_5187" isBlocking="false"/>
		<stopFacility id="1036" x="5100.0" y="3600.0" linkRefId="5187_5188" isBlocking="false"/>
		<stopFacility id="1037" x="5100.0" y="3700.0" linkRefId="5188_5189" isBlocking="false"/>
		<stopFacility id="1038" x="5100.0" y="3800.0" linkRefId="5189_5190" isBlocking="false"/>
		<stopFacility id="1039" x="5100.0" y="3900.0" linkRefId="5190_5191" isBlocking="false"/>
		<stopFacility id="104" x="100.0" y="9600.0" linkRefId="197_196" isBlocking="false"/>
		<stopFacility id="1040" x="5100.0" y="4000.0" linkRefId="5191_5192" isBlocking="false"/>
		<stopFacility id="1041" x="5100.0" y="4100.0" linkRefId="5192_5193" isBlocking="false"/>
		<stopFacility id="1042" x="5100.0" y="4200.0" linkRefId="5193_5194" isBlocking="false"/>
		<stopFacility id="1043" x="5100.0" y="4300.0" linkRefId="5194_5195" isBlocking="false"/>
		<stopFacility id="1044" x="5100.0" y="4400.0" linkRefId="5195_5196" isBlocking="false"/>
		<stopFacility id="1045" x="5100.0" y="4500.0" linkRefId="5196_5197" isBlocking="false"/>
		<stopFacility id="1046" x="5100.0" y="4600.0" linkRefId="5197_5198" isBlocking="false"/>
		<stopFacility id="1047" x="5100.0" y="4700.0" linkRefId="5198_5199" isBlocking="false"/>
		<stopFacility id="1048" x="5100.0" y="4800.0" linkRefId="5199_5200" isBlocking="false"/>
		<stopFacility id="1049" x="5100.0" y="4900.0" linkRefId="5200_5201" isBlocking="false"/>
		<stopFacility id="105" x="100.0" y="9500.0" linkRefId="196_195" isBlocking="false"/>
		<stopFacility id="1050" x="5100.0" y="5000.0" linkRefId="5201_5202" isBlocking="false"/>
		<stopFacility id="1051" x="5100.0" y="5100.0" linkRefId="5202_5203" isBlocking="false"/>
		<stopFacility id="1052" x="5100.0" y="5200.0" linkRefId="5203_5204" isBlocking="false"/>
		<stopFacility id="1053" x="5100.0" y="5300.0" linkRefId="5204_5205" isBlocking="false"/>
		<stopFacility id="1054" x="5100.0" y="5400.0" linkRefId="5205_5206" isBlocking="false"/>
		<stopFacility id="1055" x="5100.0" y="5500.0" linkRefId="5206_5207" isBlocking="false"/>
		<stopFacility id="1056" x="5100.0" y="5600.0" linkRefId="5207_5208" isBlocking="false"/>
		<stopFacility id="1057" x="5100.0" y="5700.0" linkRefId="5208_5209" isBlocking="false"/>
		<stopFacility id="1058" x="5100.0" y="5800.0" linkRefId="5209_5210" isBlocking="false"/>
		<stopFacility id="1059" x="5100.0" y="5900.0" linkRefId="5210_5211" isBlocking="false"/>
		<stopFacility id="106" x="100.0" y="9400.0" linkRefId="195_194" isBlocking="false"/>
		<stopFacility id="1060" x="5100.0" y="6000.0" linkRefId="5211_5212" isBlocking="false"/>
		<stopFacility id="1061" x="5100.0" y="6100.0" linkRefId="5212_5213" isBlocking="false"/>
		<stopFacility id="1062" x="5100.0" y="6200.0" linkRefId="5213_5214" isBlocking="false"/>
		<stopFacility id="1063" x="5100.0" y="6300.0" linkRefId="5214_5215" isBlocking="false"/>
		<stopFacility id="1064" x="5100.0" y="6400.0" linkRefId="5215_5216" isBlocking="false"/>
		<stopFacility id="1065" x="5100.0" y="6500.0" linkRefId="5216_5217" isBlocking="false"/>
		<stopFacility id="1066" x="5100.0" y="6600.0" linkRefId="5217_5218" isBlocking="false"/>
		<stopFacility id="1067" x="5100.0" y="6700.0" linkRefId="5218_5219" isBlocking="false"/>
		<stopFacility id="1068" x="5100.0" y="6800.0" linkRefId="5219_5220" isBlocking="false"/>
		<stopFacility id="1069" x="5100.0" y="6900.0" linkRefId="5220_5221" isBlocking="false"/>
		<stopFacility id="107" x="100.0" y="9300.0" linkRefId="194_193" isBlocking="false"/>
		<stopFacility id="1070" x="5100.0" y="7000.0" linkRefId="5221_5222" isBlocking="false"/>
		<stopFacility id="1071" x="5100.0" y="7100.0" linkRefId="5222_5223" isBlocking="false"/>
		<stopFacility id="1072" x="5100.0" y="7200.0" linkRefId="5223_5224" isBlocking="false"/>
		<stopFacility id="1073" x="5100.0" y="7300.0" linkRefId="5224_5225" isBlocking="false"/>
		<stopFacility id="1074" x="5100.0" y="7400.0" linkRefId="5225_5226" isBlocking="false"/>
		<stopFacility id="1075" x="5100.0" y="7500.0" linkRefId="5226_5227" isBlocking="false"/>
		<stopFacility id="1076" x="5100.0" y="7600.0" linkRefId="5227_5228" isBlocking="false"/>
		<stopFacility id="1077" x="5100.0" y="7700.0" linkRefId="5228_5229" isBlocking="false"/>
		<stopFacility id="1078" x="5100.0" y="7800.0" linkRefId="5229_5230" isBlocking="false"/>
		<stopFacility id="1079" x="5100.0" y="7900.0" linkRefId="5230_5231" isBlocking="false"/>
		<stopFacility id="108" x="100.0" y="9200.0" linkRefId="193_192" isBlocking="false"/>
		<stopFacility id="1080" x="5100.0" y="8000.0" linkRefId="5231_5232" isBlocking="false"/>
		<stopFacility id="1081" x="5100.0" y="8100.0" linkRefId="5232_5233" isBlocking="false"/>
		<stopFacility id="1082" x="5100.0" y="8200.0" linkRefId="5233_5234" isBlocking="false"/>
		<stopFacility id="1083" x="5100.0" y="8300.0" linkRefId="5234_5235" isBlocking="false"/>
		<stopFacility id="1084" x="5100.0" y="8400.0" linkRefId="5235_5236" isBlocking="false"/>
		<stopFacility id="1085" x="5100.0" y="8500.0" linkRefId="5236_5237" isBlocking="false"/>
		<stopFacility id="1086" x="5100.0" y="8600.0" linkRefId="5237_5238" isBlocking="false"/>
		<stopFacility id="1087" x="5100.0" y="8700.0" linkRefId="5238_5239" isBlocking="false"/>
		<stopFacility id="1088" x="5100.0" y="8800.0" linkRefId="5239_5240" isBlocking="false"/>
		<stopFacility id="1089" x="5100.0" y="8900.0" linkRefId="5240_5241" isBlocking="false"/>
		<stopFacility id="109" x="100.0" y="9100.0" linkRefId="192_191" isBlocking="false"/>
		<stopFacility id="1090" x="5100.0" y="9000.0" linkRefId="5241_5242" isBlocking="false"/>
		<stopFacility id="1091" x="5100.0" y="9100.0" linkRefId="5242_5243" isBlocking="false"/>
		<stopFacility id="1092" x="5100.0" y="9200.0" linkRefId="5243_5244" isBlocking="false"/>
		<stopFacility id="1093" x="5100.0" y="9300.0" linkRefId="5244_5245" isBlocking="false"/>
		<stopFacility id="1094" x="5100.0" y="9400.0" linkRefId="5245_5246" isBlocking="false"/>
		<stopFacility id="1095" x="5100.0" y="9500.0" linkRefId="5246_5247" isBlocking="false"/>
		<stopFacility id="1096" x="5100.0" y="9600.0" linkRefId="5247_5248" isBlocking="false"/>
		<stopFacility id="1097" x="5100.0" y="9700.0" linkRefId="5248_5249" isBlocking="false"/>
		<stopFacility id="1098" x="5100.0" y="9800.0" linkRefId="5249_5250" isBlocking="false"/>
		<stopFacility id="1099" x="5100.0" y="9900.0" linkRefId="5250_5251" isBlocking="false"/>
		<stopFacility id="11" x="100.0" y="1100.0" linkRefId="112_113" isBlocking="false"/>
		<stopFacility id="110" x="100.0" y="9000.0" linkRefId="191_190" isBlocking="false"/>
		<stopFacility id="1100" x="5100.0" y="10000.0" linkRefId="5251_5250" isBlocking="false"/>
		<stopFacility id="1101" x="5100.0" y="9900.0" linkRefId="5250_5249" isBlocking="false"/>
		<stopFacility id="1102" x="5100.0" y="9800.0" linkRefId="5249_5248" isBlocking="false"/>
		<stopFacility id="1103" x="5100.0" y="9700.0" linkRefId="5248_5247" isBlocking="false"/>
		<stopFacility id="1104" x="5100.0" y="9600.0" linkRefId="5247_5246" isBlocking="false"/>
		<stopFacility id="1105" x="5100.0" y="9500.0" linkRefId="5246_5245" isBlocking="false"/>
		<stopFacility id="1106" x="5100.0" y="9400.0" linkRefId="5245_5244" isBlocking="false"/>
		<stopFacility id="1107" x="5100.0" y="9300.0" linkRefId="5244_5243" isBlocking="false"/>
		<stopFacility id="1108" x="5100.0" y="9200.0" linkRefId="5243_5242" isBlocking="false"/>
		<stopFacility id="1109" x="5100.0" y="9100.0" linkRefId="5242_5241" isBlocking="false"/>
		<stopFacility id="111" x="100.0" y="8900.0" linkRefId="190_189" isBlocking="false"/>
		<stopFacility id="1110" x="5100.0" y="9000.0" linkRefId="5241_5240" isBlocking="false"/>
		<stopFacility id="1111" x="5100.0" y="8900.0" linkRefId="5240_5239" isBlocking="false"/>
		<stopFacility id="1112" x="5100.0" y="8800.0" linkRefId="5239_5238" isBlocking="false"/>
		<stopFacility id="1113" x="5100.0" y="8700.0" linkRefId="5238_5237" isBlocking="false"/>
		<stopFacility id="1114" x="5100.0" y="8600.0" linkRefId="5237_5236" isBlocking="false"/>
		<stopFacility id="1115" x="5100.0" y="8500.0" linkRefId="5236_5235" isBlocking="false"/>
		<stopFacility id="1116" x="5100.0" y="8400.0" linkRefId="5235_5234" isBlocking="false"/>
		<stopFacility id="1117" x="5100.0" y="8300.0" linkRefId="5234_5233" isBlocking="false"/>
		<stopFacility id="1118" x="5100.0" y="8200.0" linkRefId="5233_5232" isBlocking="false"/>
		<stopFacility id="1119" x="5100.0" y="8100.0" linkRefId="5232_5231" isBlocking="false"/>
		<stopFacility id="112" x="100.0" y="8800.0" linkRefId="189_188" isBlocking="false"/>
		<stopFacility id="1120" x="5100.0" y="8000.0" linkRefId="5231_5230" isBlocking="false"/>
		<stopFacility id="1121" x="5100.0" y="7900.0" linkRefId="5230_5229" isBlocking="false"/>
		<stopFacility id="1122" x="5100.0" y="7800.0" linkRefId="5229_5228" isBlocking="false"/>
		<stopFacility id="1123" x="5100.0" y="7700.0" linkRefId="5228_5227" isBlocking="false"/>
		<stopFacility id="1124" x="5100.0" y="7600.0" linkRefId="5227_5226" isBlocking="false"/>
		<stopFacility id="1125" x="5100.0" y="7500.0" linkRefId="5226_5225" isBlocking="false"/>
		<stopFacility id="1126" x="5100.0" y="7400.0" linkRefId="5225_5224" isBlocking="false"/>
		<stopFacility id="1127" x="5100.0" y="7300.0" linkRefId="5224_5223" isBlocking="false"/>
		<stopFacility id="1128" x="5100.0" y="7200.0" linkRefId="5223_5222" isBlocking="false"/>
		<stopFacility id="1129" x="5100.0" y="7100.0" linkRefId="5222_5221" isBlocking="false"/>
		<stopFacility id="113" x="100.0" y="8700.0" linkRefId="188_187" isBlocking="false"/>
		<stopFacility id="1130" x="5100.0" y="7000.0" linkRefId="5221_5220" isBlocking="false"/>
		<stopFacility id="1131" x="5100.0" y="6900.0" linkRefId="5220_5219" isBlocking="false"/>
		<stopFacility id="1132" x="5100.0" y="6800.0" linkRefId="5219_5218" isBlocking="false"/>
		<stopFacility id="1133" x="5100.0" y="6700.0" linkRefId="5218_5217" isBlocking="false"/>
		<stopFacility id="1134" x="5100.0" y="6600.0" linkRefId="5217_5216" isBlocking="false"/>
		<stopFacility id="1135" x="5100.0" y="6500.0" linkRefId="5216_5215" isBlocking="false"/>
		<stopFacility id="1136" x="5100.0" y="6400.0" linkRefId="5215_5214" isBlocking="false"/>
		<stopFacility id="1137" x="5100.0" y="6300.0" linkRefId="5214_5213" isBlocking="false"/>
		<stopFacility id="1138" x="5100.0" y="6200.0" linkRefId="5213_5212" isBlocking="false"/>
		<stopFacility id="1139" x="5100.0" y="6100.0" linkRefId="5212_5211" isBlocking="false"/>
		<stopFacility id="114" x="100.0" y="8600.0" linkRefId="187_186" isBlocking="false"/>
		<stopFacility id="1140" x="5100.0" y="6000.0" linkRefId="5211_5210" isBlocking="false"/>
		<stopFacility id="1141" x="5100.0" y="5900.0" linkRefId="5210_5209" isBlocking="false"/>
		<stopFacility id="1142" x="5100.0" y="5800.0" linkRefId="5209_5208" isBlocking="false"/>
		<stopFacility id="1143" x="5100.0" y="5700.0" linkRefId="5208_5207" isBlocking="false"/>
		<stopFacility id="1144" x="5100.0" y="5600.0" linkRefId="5207_5206" isBlocking="false"/>
		<stopFacility id="1145" x="5100.0" y="5500.0" linkRefId="5206_5205" isBlocking="false"/>
		<stopFacility id="1146" x="5100.0" y="5400.0" linkRefId="5205_5204" isBlocking="false"/>
		<stopFacility id="1147" x="5100.0" y="5300.0" linkRefId="5204_5203" isBlocking="false"/>
		<stopFacility id="1148" x="5100.0" y="5200.0" linkRefId="5203_5202" isBlocking="false"/>
		<stopFacility id="1149" x="5100.0" y="5100.0" linkRefId="5202_5201" isBlocking="false"/>
		<stopFacility id="115" x="100.0" y="8500.0" linkRefId="186_185" isBlocking="false"/>
		<stopFacility id="1150" x="5100.0" y="5000.0" linkRefId="5201_5200" isBlocking="false"/>
		<stopFacility id="1151" x="5100.0" y="4900.0" linkRefId="5200_5199" isBlocking="false"/>
		<stopFacility id="1152" x="5100.0" y="4800.0" linkRefId="5199_5198" isBlocking="false"/>
		<stopFacility id="1153" x="5100.0" y="4700.0" linkRefId="5198_5197" isBlocking="false"/>
		<stopFacility id="1154" x="5100.0" y="4600.0" linkRefId="5197_5196" isBlocking="false"/>
		<stopFacility id="1155" x="5100.0" y="4500.0" linkRefId="5196_5195" isBlocking="false"/>
		<stopFacility id="1156" x="5100.0" y="4400.0" linkRefId="5195_5194" isBlocking="false"/>
		<stopFacility id="1157" x="5100.0" y="4300.0" linkRefId="5194_5193" isBlocking="false"/>
		<stopFacility id="1158" x="5100.0" y="4200.0" linkRefId="5193_5192" isBlocking="false"/>
		<stopFacility id="1159" x="5100.0" y="4100.0" linkRefId="5192_5191" isBlocking="false"/>
		<stopFacility id="116" x="100.0" y="8400.0" linkRefId="185_184" isBlocking="false"/>
		<stopFacility id="1160" x="5100.0" y="4000.0" linkRefId="5191_5190" isBlocking="false"/>
		<stopFacility id="1161" x="5100.0" y="3900.0" linkRefId="5190_5189" isBlocking="false"/>
		<stopFacility id="1162" x="5100.0" y="3800.0" linkRefId="5189_5188" isBlocking="false"/>
		<stopFacility id="1163" x="5100.0" y="3700.0" linkRefId="5188_5187" isBlocking="false"/>
		<stopFacility id="1164" x="5100.0" y="3600.0" linkRefId="5187_5186" isBlocking="false"/>
		<stopFacility id="1165" x="5100.0" y="3500.0" linkRefId="5186_5185" isBlocking="false"/>
		<stopFacility id="1166" x="5100.0" y="3400.0" linkRefId="5185_5184" isBlocking="false"/>
		<stopFacility id="1167" x="5100.0" y="3300.0" linkRefId="5184_5183" isBlocking="false"/>
		<stopFacility id="1168" x="5100.0" y="3200.0" linkRefId="5183_5182" isBlocking="false"/>
		<stopFacility id="1169" x="5100.0" y="3100.0" linkRefId="5182_5181" isBlocking="false"/>
		<stopFacility id="117" x="100.0" y="8300.0" linkRefId="184_183" isBlocking="false"/>
		<stopFacility id="1170" x="5100.0" y="3000.0" linkRefId="5181_5180" isBlocking="false"/>
		<stopFacility id="1171" x="5100.0" y="2900.0" linkRefId="5180_5179" isBlocking="false"/>
		<stopFacility id="1172" x="5100.0" y="2800.0" linkRefId="5179_5178" isBlocking="false"/>
		<stopFacility id="1173" x="5100.0" y="2700.0" linkRefId="5178_5177" isBlocking="false"/>
		<stopFacility id="1174" x="5100.0" y="2600.0" linkRefId="5177_5176" isBlocking="false"/>
		<stopFacility id="1175" x="5100.0" y="2500.0" linkRefId="5176_5175" isBlocking="false"/>
		<stopFacility id="1176" x="5100.0" y="2400.0" linkRefId="5175_5174" isBlocking="false"/>
		<stopFacility id="1177" x="5100.0" y="2300.0" linkRefId="5174_5173" isBlocking="false"/>
		<stopFacility id="1178" x="5100.0" y="2200.0" linkRefId="5173_5172" isBlocking="false"/>
		<stopFacility id="1179" x="5100.0" y="2100.0" linkRefId="5172_5171" isBlocking="false"/>
		<stopFacility id="118" x="100.0" y="8200.0" linkRefId="183_182" isBlocking="false"/>
		<stopFacility id="1180" x="5100.0" y="2000.0" linkRefId="5171_5170" isBlocking="false"/>
		<stopFacility id="1181" x="5100.0" y="1900.0" linkRefId="5170_5169" isBlocking="false"/>
		<stopFacility id="1182" x="5100.0" y="1800.0" linkRefId="5169_5168" isBlocking="false"/>
		<stopFacility id="1183" x="5100.0" y="1700.0" linkRefId="5168_5167" isBlocking="false"/>
		<stopFacility id="1184" x="5100.0" y="1600.0" linkRefId="5167_5166" isBlocking="false"/>
		<stopFacility id="1185" x="5100.0" y="1500.0" linkRefId="5166_5165" isBlocking="false"/>
		<stopFacility id="1186" x="5100.0" y="1400.0" linkRefId="5165_5164" isBlocking="false"/>
		<stopFacility id="1187" x="5100.0" y="1300.0" linkRefId="5164_5163" isBlocking="false"/>
		<stopFacility id="1188" x="5100.0" y="1200.0" linkRefId="5163_5162" isBlocking="false"/>
		<stopFacility id="1189" x="5100.0" y="1100.0" linkRefId="5162_5161" isBlocking="false"/>
		<stopFacility id="119" x="100.0" y="8100.0" linkRefId="182_181" isBlocking="false"/>
		<stopFacility id="1190" x="5100.0" y="1000.0" linkRefId="5161_5160" isBlocking="false"/>
		<stopFacility id="1191" x="5100.0" y="900.0" linkRefId="5160_5159" isBlocking="false"/>
		<stopFacility id="1192" x="5100.0" y="800.0" linkRefId="5159_5158" isBlocking="false"/>
		<stopFacility id="1193" x="5100.0" y="700.0" linkRefId="5158_5157" isBlocking="false"/>
		<stopFacility id="1194" x="5100.0" y="600.0" linkRefId="5157_5156" isBlocking="false"/>
		<stopFacility id="1195" x="5100.0" y="500.0" linkRefId="5156_5155" isBlocking="false"/>
		<stopFacility id="1196" x="5100.0" y="400.0" linkRefId="5155_5154" isBlocking="false"/>
		<stopFacility id="1197" x="5100.0" y="300.0" linkRefId="5154_5153" isBlocking="false"/>
		<stopFacility id="1198" x="5100.0" y="200.0" linkRefId="5153_5152" isBlocking="false"/>
		<stopFacility id="1199" x="5100.0" y="100.0" linkRefId="5152_5151" isBlocking="false"/>
		<stopFacility id="12" x="100.0" y="1200.0" linkRefId="113_114" isBlocking="false"/>
		<stopFacility id="120" x="100.0" y="8000.0" linkRefId="181_180" isBlocking="false"/>
		<stopFacility id="1200" x="6100.0" y="0.0" linkRefId="6161_6162" isBlocking="false"/>
		<stopFacility id="1201" x="6100.0" y="100.0" linkRefId="6162_6163" isBlocking="false"/>
		<stopFacility id="1202" x="6100.0" y="200.0" linkRefId="6163_6164" isBlocking="false"/>
		<stopFacility id="1203" x="6100.0" y="300.0" linkRefId="6164_6165" isBlocking="false"/>
		<stopFacility id="1204" x="6100.0" y="400.0" linkRefId="6165_6166" isBlocking="false"/>
		<stopFacility id="1205" x="6100.0" y="500.0" linkRefId="6166_6167" isBlocking="false"/>
		<stopFacility id="1206" x="6100.0" y="600.0" linkRefId="6167_6168" isBlocking="false"/>
		<stopFacility id="1207" x="6100.0" y="700.0" linkRefId="6168_6169" isBlocking="false"/>
		<stopFacility id="1208" x="6100.0" y="800.0" linkRefId="6169_6170" isBlocking="false"/>
		<stopFacility id="1209" x="6100.0" y="900.0" linkRefId="6170_6171" isBlocking="false"/>
		<stopFacility id="121" x="100.0" y="7900.0" linkRefId="180_179" isBlocking="false"/>
		<stopFacility id="1210" x="6100.0" y="1000.0" linkRefId="6171_6172" isBlocking="false"/>
		<stopFacility id="1211" x="6100.0" y="1100.0" linkRefId="6172_6173" isBlocking="false"/>
		<stopFacility id="1212" x="6100.0" y="1200.0" linkRefId="6173_6174" isBlocking="false"/>
		<stopFacility id="1213" x="6100.0" y="1300.0" linkRefId="6174_6175" isBlocking="false"/>
		<stopFacility id="1214" x="6100.0" y="1400.0" linkRefId="6175_6176" isBlocking="false"/>
		<stopFacility id="1215" x="6100.0" y="1500.0" linkRefId="6176_6177" isBlocking="false"/>
		<stopFacility id="1216" x="6100.0" y="1600.0" linkRefId="6177_6178" isBlocking="false"/>
		<stopFacility id="1217" x="6100.0" y="1700.0" linkRefId="6178_6179" isBlocking="false"/>
		<stopFacility id="1218" x="6100.0" y="1800.0" linkRefId="6179_6180" isBlocking="false"/>
		<stopFacility id="1219" x="6100.0" y="1900.0" linkRefId="6180_6181" isBlocking="false"/>
		<stopFacility id="122" x="100.0" y="7800.0" linkRefId="179_178" isBlocking="false"/>
		<stopFacility id="1220" x="6100.0" y="2000.0" linkRefId="6181_6182" isBlocking="false"/>
		<stopFacility id="1221" x="6100.0" y="2100.0" linkRefId="6182_6183" isBlocking="false"/>
		<stopFacility id="1222" x="6100.0" y="2200.0" linkRefId="6183_6184" isBlocking="false"/>
		<stopFacility id="1223" x="6100.0" y="2300.0" linkRefId="6184_6185" isBlocking="false"/>
		<stopFacility id="1224" x="6100.0" y="2400.0" linkRefId="6185_6186" isBlocking="false"/>
		<stopFacility id="1225" x="6100.0" y="2500.0" linkRefId="6186_6187" isBlocking="false"/>
		<stopFacility id="1226" x="6100.0" y="2600.0" linkRefId="6187_6188" isBlocking="false"/>
		<stopFacility id="1227" x="6100.0" y="2700.0" linkRefId="6188_6189" isBlocking="false"/>
		<stopFacility id="1228" x="6100.0" y="2800.0" linkRefId="6189_6190" isBlocking="false"/>
		<stopFacility id="1229" x="6100.0" y="2900.0" linkRefId="6190_6191" isBlocking="false"/>
		<stopFacility id="123" x="100.0" y="7700.0" linkRefId="178_177" isBlocking="false"/>
		<stopFacility id="1230" x="6100.0" y="3000.0" linkRefId="6191_6192" isBlocking="false"/>
		<stopFacility id="1231" x="6100.0" y="3100.0" linkRefId="6192_6193" isBlocking="false"/>
		<stopFacility id="1232" x="6100.0" y="3200.0" linkRefId="6193_6194" isBlocking="false"/>
		<stopFacility id="1233" x="6100.0" y="3300.0" linkRefId="6194_6195" isBlocking="false"/>
		<stopFacility id="1234" x="6100.0" y="3400.0" linkRefId="6195_6196" isBlocking="false"/>
		<stopFacility id="1235" x="6100.0" y="3500.0" linkRefId="6196_6197" isBlocking="false"/>
		<stopFacility id="1236" x="6100.0" y="3600.0" linkRefId="6197_6198" isBlocking="false"/>
		<stopFacility id="1237" x="6100.0" y="3700.0" linkRefId="6198_6199" isBlocking="false"/>
		<stopFacility id="1238" x="6100.0" y="3800.0" linkRefId="6199_6200" isBlocking="false"/>
		<stopFacility id="1239" x="6100.0" y="3900.0" linkRefId="6200_6201" isBlocking="false"/>
		<stopFacility id="124" x="100.0" y="7600.0" linkRefId="177_176" isBlocking="false"/>
		<stopFacility id="1240" x="6100.0" y="4000.0" linkRefId="6201_6202" isBlocking="false"/>
		<stopFacility id="1241" x="6100.0" y="4100.0" linkRefId="6202_6203" isBlocking="false"/>
		<stopFacility id="1242" x="6100.0" y="4200.0" linkRefId="6203_6204" isBlocking="false"/>
		<stopFacility id="1243" x="6100.0" y="4300.0" linkRefId="6204_6205" isBlocking="false"/>
		<stopFacility id="1244" x="6100.0" y="4400.0" linkRefId="6205_6206" isBlocking="false"/>
		<stopFacility id="1245" x="6100.0" y="4500.0" linkRefId="6206_6207" isBlocking="false"/>
		<stopFacility id="1246" x="6100.0" y="4600.0" linkRefId="6207_6208" isBlocking="false"/>
		<stopFacility id="1247" x="6100.0" y="4700.0" linkRefId="6208_6209" isBlocking="false"/>
		<stopFacility id="1248" x="6100.0" y="4800.0" linkRefId="6209_6210" isBlocking="false"/>
		<stopFacility id="1249" x="6100.0" y="4900.0" linkRefId="6210_6211" isBlocking="false"/>
		<stopFacility id="125" x="100.0" y="7500.0" linkRefId="176_175" isBlocking="false"/>
		<stopFacility id="1250" x="6100.0" y="5000.0" linkRefId="6211_6212" isBlocking="false"/>
		<stopFacility id="1251" x="6100.0" y="5100.0" linkRefId="6212_6213" isBlocking="false"/>
		<stopFacility id="1252" x="6100.0" y="5200.0" linkRefId="6213_6214" isBlocking="false"/>
		<stopFacility id="1253" x="6100.0" y="5300.0" linkRefId="6214_6215" isBlocking="false"/>
		<stopFacility id="1254" x="6100.0" y="5400.0" linkRefId="6215_6216" isBlocking="false"/>
		<stopFacility id="1255" x="6100.0" y="5500.0" linkRefId="6216_6217" isBlocking="false"/>
		<stopFacility id="1256" x="6100.0" y="5600.0" linkRefId="6217_6218" isBlocking="false"/>
		<stopFacility id="1257" x="6100.0" y="5700.0" linkRefId="6218_6219" isBlocking="false"/>
		<stopFacility id="1258" x="6100.0" y="5800.0" linkRefId="6219_6220" isBlocking="false"/>
		<stopFacility id="1259" x="6100.0" y="5900.0" linkRefId="6220_6221" isBlocking="false"/>
		<stopFacility id="126" x="100.0" y="7400.0" linkRefId="175_174" isBlocking="false"/>
		<stopFacility id="1260" x="6100.0" y="6000.0" linkRefId="6221_6222" isBlocking="false"/>
		<stopFacility id="1261" x="6100.0" y="6100.0" linkRefId="6222_6223" isBlocking="false"/>
		<stopFacility id="1262" x="6100.0" y="6200.0" linkRefId="6223_6224" isBlocking="false"/>
		<stopFacility id="1263" x="6100.0" y="6300.0" linkRefId="6224_6225" isBlocking="false"/>
		<stopFacility id="1264" x="6100.0" y="6400.0" linkRefId="6225_6226" isBlocking="false"/>
		<stopFacility id="1265" x="6100.0" y="6500.0" linkRefId="6226_6227" isBlocking="false"/>
		<stopFacility id="1266" x="6100.0" y="6600.0" linkRefId="6227_6228" isBlocking="false"/>
		<stopFacility id="1267" x="6100.0" y="6700.0" linkRefId="6228_6229" isBlocking="false"/>
		<stopFacility id="1268" x="6100.0" y="6800.0" linkRefId="6229_6230" isBlocking="false"/>
		<stopFacility id="1269" x="6100.0" y="6900.0" linkRefId="6230_6231" isBlocking="false"/>
		<stopFacility id="127" x="100.0" y="7300.0" linkRefId="174_173" isBlocking="false"/>
		<stopFacility id="1270" x="6100.0" y="7000.0" linkRefId="6231_6232" isBlocking="false"/>
		<stopFacility id="1271" x="6100.0" y="7100.0" linkRefId="6232_6233" isBlocking="false"/>
		<stopFacility id="1272" x="6100.0" y="7200.0" linkRefId="6233_6234" isBlocking="false"/>
		<stopFacility id="1273" x="6100.0" y="7300.0" linkRefId="6234_6235" isBlocking="false"/>
		<stopFacility id="1274" x="6100.0" y="7400.0" linkRefId="6235_6236" isBlocking="false"/>
		<stopFacility id="1275" x="6100.0" y="7500.0" linkRefId="6236_6237" isBlocking="false"/>
		<stopFacility id="1276" x="6100.0" y="7600.0" linkRefId="6237_6238" isBlocking="false"/>
		<stopFacility id="1277" x="6100.0" y="7700.0" linkRefId="6238_6239" isBlocking="false"/>
		<stopFacility id="1278" x="6100.0" y="7800.0" linkRefId="6239_6240" isBlocking="false"/>
		<stopFacility id="1279" x="6100.0" y="7900.0" linkRefId="6240_6241" isBlocking="false"/>
		<stopFacility id="128" x="100.0" y="7200.0" linkRefId="173_172" isBlocking="false"/>
		<stopFacility id="1280" x="6100.0" y="8000.0" linkRefId="6241_6242" isBlocking="false"/>
		<stopFacility id="1281" x="6100.0" y="8100.0" linkRefId="6242_6243" isBlocking="false"/>
		<stopFacility id="1282" x="6100.0" y="8200.0" linkRefId="6243_6244" isBlocking="false"/>
		<stopFacility id="1283" x="6100.0" y="8300.0" linkRefId="6244_6245" isBlocking="false"/>
		<stopFacility id="1284" x="6100.0" y="8400.0" linkRefId="6245_6246" isBlocking="false"/>
		<stopFacility id="1285" x="6100.0" y="8500.0" linkRefId="6246_6247" isBlocking="false"/>
		<stopFacility id="1286" x="6100.0" y="8600.0" linkRefId="6247_6248" isBlocking="false"/>
		<stopFacility id="1287" x="6100.0" y="8700.0" linkRefId="6248_6249" isBlocking="false"/>
		<stopFacility id="1288" x="6100.0" y="8800.0" linkRefId="6249_6250" isBlocking="false"/>
		<stopFacility id="1289" x="6100.0" y="8900.0" linkRefId="6250_6251" isBlocking="false"/>
		<stopFacility id="129" x="100.0" y="7100.0" linkRefId="172_171" isBlocking="false"/>
		<stopFacility id="1290" x="6100.0" y="9000.0" linkRefId="6251_6252" isBlocking="false"/>
		<stopFacility id="1291" x="6100.0" y="9100.0" linkRefId="6252_6253" isBlocking="false"/>
		<stopFacility id="1292" x="6100.0" y="9200.0" linkRefId="6253_6254" isBlocking="false"/>
		<stopFacility id="1293" x="6100.0" y="9300.0" linkRefId="6254_6255" isBlocking="false"/>