<?xml version="1.0" encoding="UTF-8"?>
<!DOCTYPE transitSchedule SYSTEM "http://www.matsim.org/files/dtd/transitSchedule_v2.dtd">

<transitSchedule>

	<transitStops>
		<stopFacility id="0" x="500.0" y="500.0" linkRefId="5_5-5_6" isBlocking="false"/>
		<stopFacility id="10" x="500.0" y="1500.0" linkRefId="5_15-5_16" isBlocking="false"/>
		<stopFacility id="100" x="500.0" y="9500.0" linkRefId="5_95-5_94" isBlocking="false"/>
		<stopFacility id="1005" x="5500.0" y="3500.0" linkRefId="55_35-55_36" isBlocking="false"/>
		<stopFacility id="1015" x="5500.0" y="4500.0" linkRefId="55_45-55_46" isBlocking="false"/>
		<stopFacility id="1025" x="5500.0" y="5500.0" linkRefId="55_55-55_56" isBlocking="false"/>
		<stopFacility id="1035" x="5500.0" y="6500.0" linkRefId="55_65-55_66" isBlocking="false"/>
		<stopFacility id="1045" x="5500.0" y="7500.0" linkRefId="55_75-55_76" isBlocking="false"/>
		<stopFacility id="1055" x="5500.0" y="8500.0" linkRefId="55_85-55_86" isBlocking="false"/>
		<stopFacility id="1065" x="5500.0" y="9500.0" linkRefId="55_95-55_96" isBlocking="false"/>
		<stopFacility id="1075" x="5500.0" y="9500.0" linkRefId="55_95-55_94" isBlocking="false"/>
		<stopFacility id="1085" x="5500.0" y="8500.0" linkRefId="55_85-55_84" isBlocking="false"/>
		<stopFacility id="1095" x="5500.0" y="7500.0" linkRefId="55_75-55_74" isBlocking="false"/>
		<stopFacility id="110" x="500.0" y="8500.0" linkRefId="5_85-5_84" isBlocking="false"/>
		<stopFacility id="1105" x="5500.0" y="6500.0" linkRefId="55_65-55_64" isBlocking="false"/>
		<stopFacility id="1115" x="5500.0" y="5500.0" linkRefId="55_55-55_54" isBlocking="false"/>
		<stopFacility id="1125" x="5500.0" y="4500.0" linkRefId="55_45-55_44" isBlocking="false"/>
		<stopFacility id="1135" x="5500.0" y="3500.0" linkRefId="55_35-55_34" isBlocking="false"/>
		<stopFacility id="1145" x="5500.0" y="2500.0" linkRefId="55_25-55_24" isBlocking="false"/>
		<stopFacility id="1155" x="5500.0" y="1500.0" linkRefId="55_15-55_14" isBlocking="false"/>
		<stopFacility id="1165" x="5500.0" y="500.0" linkRefId="55_5-55_4" isBlocking="false"/>
		<stopFacility id="1170" x="6500.0" y="500.0" linkRefId="65_5-65_6" isBlocking="false"/>
		<stopFacility id="1180" x="6500.0" y="1500.0" linkRefId="65_15-65_16" isBlocking="false"/>
		<stopFacility id="1190" x="6500.0" y="2500.0" linkRefId="65_25-65_26" isBlocking="false"/>
		<stopFacility id="120" x="500.0" y="7500.0" linkRefId="5_75-5_74" isBlocking="false"/>
		<stopFacility id="1200" x="6500.0" y="3500.0" linkRefId="65_35-65_36" isBlocking="false"/>
		<stopFacility id="1210" x="6500.0" y="4500.0" linkRefId="65_45-65_46" isBlocking="false"/>
		<stopFacility id="1220" x="6500.0" y="5500.0" linkRefId="65_55-65_56" isBlocking="false"/>
		<stopFacility id="1230" x="6500.0" y="6500.0" linkRefId="65_65-65_66" isBlocking="false"/>
		<stopFacility id="1240" x="6500.0" y="7500.0" linkRefId="65_75-65_76" isBlocking="false"/>
		<stopFacility id="1250" x="6500.0" y="8500.0" linkRefId="65_85-65_86" isBlocking="false"/>
		<stopFacility id="1260" x="6500.0" y="9500.0" linkRefId="65_95-65_96" isBlocking="false"/>
		<stopFacility id="1270" x="6500.0" y="9500.0" linkRefId="65_95-65_94" isBlocking="false"/>
		<stopFacility id="1280" x="6500.0" y="8500.0" linkRefId="65_85-65_84" isBlocking="false"/>
		<stopFacility id="1290" x="6500.0" y="7500.0" linkRefId="65_75-65_74" isBlocking="false"/>
		<stopFacility id="130" x="500.0" y="6500.0" linkRefId="5_65-5_64" isBlocking="false"/>
		<stopFacility id="1300" x="6500.0" y="6500.0" linkRefId="65_65-65_64" isBlocking="false"/>
		<stopFacility id="1310" x="6500.0" y="5500.0" linkRefId="65_55-65_54" isBlocking="false"/>
		<stopFacility id="1320" x="6500.0" y="4500.0" linkRefId="65_45-65_44" isBlocking="false"/>
		<stopFacility id="1330" x="6500.0" y="3500.0" linkRefId="65_35-65_34" isBlocking="false"/>
		<stopFacility id="1340" x="6500.0" y="2500.0" linkRefId="65_25-65_24" isBlocking="false"/>
		<stopFacility id="1350" x="6500.0" y="1500.0" linkRefId="65_15-65_14" isBlocking="false"/>
		<stopFacility id="1360" x="6500.0" y="500.0" linkRefId="65_5-65_4" isBlocking="false"/>
		<stopFacility id="1365" x="7500.0" y="500.0" linkRefId="75_5-75_6" isBlocking="false"/>
		<stopFacility id="1375" x="7500.0" y="1500.0" linkRefId="75_15-75_16" isBlocking="false"/>
		<stopFacility id="1385" x="7500.0" y="2500.0" linkRefId="75_25-75_26" isBlocking="false"/>
		<stopFacility id="1395" x="7500.0" y="3500.0" linkRefId="75_35-75_36" isBlocking="false"/>
		<stopFacility id="140" x="500.0" y="5500.0" linkRefId="5_55-5_54" isBlocking="false"/>
		<stopFacility id="1405" x="7500.0" y="4500.0" linkRefId="75_45-75_46" isBlocking="false"/>
		<stopFacility id="1415" x="7500.0" y="5500.0" linkRefId="75_55-75_56" isBlocking="false"/>
		<stopFacility id="1425" x="7500.0" y="6500.0" linkRefId="75_65-75_66" isBlocking="false"/>
		<stopFacility id="1435" x="7500.0" y="7500.0" linkRefId="75_75-75_76" isBlocking="false"/>
		<stopFacility id="1445" x="7500.0" y="8500.0" linkRefId="75_85-75_86" isBlocking="false"/>
		<stopFacility id="1455" x="7500.0" y="9500.0" linkRefId="75_95-75_96" isBlocking="false"/>
		<stopFacility id="1465" x="7500.0" y="9500.0" linkRefId="75_95-75_94" isBlocking="false"/>
		<stopFacility id="1475" x="7500.0" y="8500.0" linkRefId="75_85-75_84" isBlocking="false"/>
		<stopFacility id="1485" x="7500.0" y="7500.0" linkRefId="75_75-75_74" isBlocking="false"/>
		<stopFacility id="1495" x="7500.0" y="6500.0" linkRefId="75_65-75_64" isBlocking="false"/>
		<stopFacility id="150" x="500.0" y="4500.0" linkRefId="5_45-5_44" isBlocking="false"/>
		<stopFacility id="1505" x="7500.0" y="5500.0" linkRefId="75_55-75_54" isBlocking="false"/>
		<stopFacility id="1515" x="7500.0" y="4500.0" linkRefId="75_45-75_44" isBlocking="false"/>
		<stopFacility id="1525" x="7500.0" y="3500.0" linkRefId="75_35-75_34" isBlocking="false"/>
		<stopFacility id="1535" x="7500.0" y="2500.0" linkRefId="75_25-75_24" isBlocking="false"/>
		<stopFacility id="1545" x="7500.0" y="1500.0" linkRefId="75_15-75_14" isBlocking="false"/>
		<stopFacility id="1555" x="7500.0" y="500.0" linkRefId="75_5-75_4" isBlocking="false"/>
		<stopFacility id="1560" x="8500.0" y="500.0" linkRefId="85_5-85_6" isBlocking="false"/>
		<stopFacility id="1570" x="8500.0" y="1500.0" linkRefId="85_15-85_16" isBlocking="false"/>
		<stopFacility id="1580" x="8500.0" y="2500.0" linkRefId="85_25-85_26" isBlocking="false"/>
		<stopFacility id="1590" x="8500.0" y="3500.0" linkRefId="85_35-85_36" isBlocking="false"/>
		<stopFacility id="160" x="500.0" y="3500.0" linkRefId="5_35-5_34" isBlocking="false"/>
		<stopFacility id="1600" x="8500.0" y="4500.0" linkRefId="85_45-85_46" isBlocking="false"/>
		<stopFacility id="1610" x="8500.0" y="5500.0" linkRefId="85_55-85_56" isBlocking="false"/>
		<stopFacility id="1620" x="8500.0" y="6500.0" linkRefId="85_65-85_66" isBlocking="false"/>
		<stopFacility id="1630" x="8500.0" y="7500.0" linkRefId="85_75-85_76" isBlocking="false"/>
		<stopFacility id="1640" x="8500.0" y="8500.0" linkRefId="85_85-85_86" isBlocking="false"/>
		<stopFacility id="1650" x="8500.0" y="9500.0" linkRefId="85_95-85_96" isBlocking="false"/>
		<stopFacility id="1660" x="8500.0" y="9500.0" linkRefId="85_95-85_94" isBlocking="false"/>
		<stopFacility id="1670" x="8500.0" y="8500.0" linkRefId="85_85-85_84" isBlocking="false"/>
		<stopFacility id="1680" x="8500.0" y="7500.0" linkRefId="85_75-85_74" isBlocking="false"/>
		<stopFacility id="1690" x="8500.0" y="6500.0" linkRefId="85_65-85_64" isBlocking="false"/>
		<stopFacility id="170" x="500.0" y="2500.0" linkRefId="5_25-5_24" isBlocking="false"/>
		<stopFacility id="1700" x="8500.0" y="5500.0" linkRefId="85_55-85_54" isBlocking="false"/>
		<stopFacility id="1710" x="8500.0" y="4500.0" linkRefId="85_45-85_44" isBlocking="false"/>
		<stopFacility id="1720" x="8500.0" y="3500.0" linkRefId="85_35-85_34" isBlocking="false"/>
		<stopFacility id="1730" x="8500.0" y="2500.0" linkRefId="85_25-85_24" isBlocking="false"/>
		<stopFacility id="1740" x="8500.0" y="1500.0" linkRefId="85_15-85_14" isBlocking="false"/>
		<stopFacility id="1750" x="8500.0" y="500.0" linkRefId="85_5-85_4" isBlocking="false"/>
		<stopFacility id="1755" x="9500.0" y="500.0" linkRefId="95_5-95_6" isBlocking="false"/>
		<stopFacility id="1765" x="9500.0" y="1500.0" linkRefId="95_15-95_16" isBlocking="false"/>
		<stopFacility id="1775" x="9500.0" y="2500.0" linkRefId="95_25-95_26" isBlocking="false"/>
		<stopFacility id="1785" x="9500.0" y="3500.0" linkRefId="95_35-95_36" isBlocking="false"/>
		<stopFacility id="1795" x="9500.0" y="4500.0" linkRefId="95_45-95_46" isBlocking="false"/>
		<stopFacility id="180" x="500.0" y="1500.0" linkRefId="5_15-5_14" isBlocking="false"/>
		<stopFacility id="1805" x="9500.0" y="5500.0" linkRefId="95_55-95_56" isBlocking="false"/>
		<stopFacility id="1815" x="9500.0" y="6500.0" linkRefId="95_65-95_66" isBlocking="false"/>
		<stopFacility id="1825" x="9500.0" y="7500.0" linkRefId="95_75-95_76" isBlocking="false"/>
		<stopFacility id="1835" x="9500.0" y="8500.0" linkRefId="95_85-95_86" isBlocking="false"/>
		<stopFacility id="1845" x="9500.0" y="9500.0" linkRefId="95_95-95_96" isBlocking="false"/>
		<stopFacility id="1855" x="9500.0" y="9500.0" linkRefId="95_95-95_94" isBlocking="false"/>
		<stopFacility id="1865" x="9500.0" y="8500.0" linkRefId="95_85-95_84" isBlocking="false"/>
		<stopFacility id="1875" x="9500.0" y="7500.0" linkRefId="95_75-95_74" isBlocking="false"/>
		<stopFacility id="1885" x="9500.0" y="6500.0" linkRefId="95_65-95_64" isBlocking="false"/>
		<stopFacility id="1895" x="9500.0" y="5500.0" linkRefId="95_55-95_54" isBlocking="false"/>
		<stopFacility id="190" x="500.0" y="500.0" linkRefId="5_5-5_4" isBlocking="false"/>
		<stopFacility id="1905" x="9500.0" y="4500.0" linkRefId="95_45-95_44" isBlocking="false"/>
		<stopFacility id="1915" x="9500.0" y="3500.0" linkRefId="95_35-95_34" isBlocking="false"/>
		<stopFacility id="1925" x="9500.0" y="2500.0" linkRefId="95_25-95_24" isBlocking="false"/>
		<stopFacility id="1935" x="9500.0" y="1500.0" linkRefId="95_15-95_14" isBlocking="false"/>
		<stopFacility id="1945" x="9500.0" y="500.0" linkRefId="95_5-95_4" isBlocking="false"/>
		<stopFacility id="195" x="1500.0" y="500.0" linkRefId="15_5-15_6" isBlocking="false"/>
		<stopFacility id="1950" x="500.0" y="9500.0" linkRefId="5_95-5_94" isBlocking="false"/>
		<stopFacility id="1960" x="500.0" y="8500.0" linkRefId="5_85-5_84" isBlocking="false"/>
		<stopFacility id="1970" x="500.0" y="7500.0" linkRefId="5_75-5_74" isBlocking="false"/>
		<stopFacility id="1980" x="500.0" y="6500.0" linkRefId="5_65-5_64" isBlocking="false"/>
		<stopFacility id="1990" x="500.0" y="5500.0" linkRefId="5_55-5_54" isBlocking="false"/>
		<stopFacility id="20" x="500.0" y="2500.0" linkRefId="5_25-5_26" isBlocking="false"/>
		<stopFacility id="2000" x="500.0" y="4500.0" linkRefId="5_45-5_44" isBlocking="false"/>
		<stopFacility id="2010" x="500.0" y="3500.0" linkRefId="5_35-5_34" isBlocking="false"/>
		<stopFacility id="2020" x="500.0" y="2500.0" linkRefId="5_25-5_24" isBlocking="false"/>
		<stopFacility id="2030" x="500.0" y="1500.0" linkRefId="5_15-5_14" isBlocking="false"/>
		<stopFacility id="2040" x="500.0" y="500.0" linkRefId="5_5-5_4" isBlocking="false"/>
		<stopFacility id="205" x="1500.0" y="1500.0" linkRefId="15_15-15_16" isBlocking="false"/>
		<stopFacility id="2050" x="500.0" y="500.0" linkRefId="5_5-5_6" isBlocking="false"/>
		<stopFacility id="2060" x="500.0" y="1500.0" linkRefId="5_15-5_16" isBlocking="false"/>
		<stopFacility id="2070" x="500.0" y="2500.0" linkRefId="5_25-5_26" isBlocking="false"/>
		<stopFacility id="2080" x="500.0" y="3500.0" linkRefId="5_35-5_36" isBlocking="false"/>
		<stopFacility id="2090" x="500.0" y="4500.0" linkRefId="5_45-5_46" isBlocking="false"/>
		<stopFacility id="2100" x="500.0" y="5500.0" linkRefId="5_55-5_56" isBlocking="false"/>
		<stopFacility id="2110" x="500.0" y="6500.0" linkRefId="5_65-5_66" isBlocking="false"/>
		<stopFacility id="2120" x="500.0" y="7500.0" linkRefId="5_75-5_76" isBlocking="false"/>
		<stopFacility id="2130" x="500.0" y="8500.0" linkRefId="5_85-5_86" isBlocking="false"/>
		<stopFacility id="2140" x="500.0" y="9500.0" linkRefId="5_95-5_96" isBlocking="false"/>
		<stopFacility id="2145" x="1500.0" y="9500.0" linkRefId="15_95-15_94" isBlocking="false"/>
		<stopFacility id="215" x="1500.0" y="2500.0" linkRefId="15_25-15_26" isBlocking="false"/>
		<stopFacility id="2155" x="1500.0" y="8500.0" linkRefId="15_85-15_84" isBlocking="false"/>
		<stopFacility id="2165" x="1500.0" y="7500.0" linkRefId="15_75-15_74" isBlocking="false"/>
		<stopFacility id="2175" x="1500.0" y="6500.0" linkRefId="15_65-15_64" isBlocking="false"/>
		<stopFacility id="2185" x="1500.0" y="5500.0" linkRefId="15_55-15_54" isBlocking="false"/>
		<stopFacility id="2195" x="1500.0" y="4500.0" linkRefId="15_45-15_44" isBlocking="false"/>
		<stopFacility id="2205" x="1500.0" y="3500.0" linkRefId="15_35-15_34" isBlocking="false"/>
		<stopFacility id="2215" x="1500.0" y="2500.0" linkRefId="15_25-15_24" isBlocking="false"/>
		<stopFacility id="2225" x="1500.0" y="1500.0" linkRefId="15_15-15_14" isBlocking="false"/>
		<stopFacility id="2235" x="1500.0" y="500.0" linkRefId="15_5-15_4" isBlocking="false"/>
		<stopFacility id="2245" x="1500.0" y="500.0" linkRefId="15_5-15_6" isBlocking="false"/>
		<stopFacility id="225" x="1500.0" y="3500.0" linkRefId="15_35-15_36" isBlocking="false"/>
		<stopFacility id="2255" x="1500.0" y="1500.0" linkRefId="15_15-15_16" isBlocking="false"/>
		<stopFacility id="2265" x="1500.0" y="2500.0" linkRefId="15_25-15_26" isBlocking="false"/>
		<stopFacility id="2275" x="1500.0" y="3500.0" linkRefId="15_35-15_36" isBlocking="false"/>
		<stopFacility id="2285" x="1500.0" y="4500.0" linkRefId="15_45-15_46" isBlocking="false"/>
		<stopFacility id="2295" x="1500.0" y="5500.0" linkRefId="15_55-15_56" isBlocking="false"/>
		<stopFacility id="2305" x="1500.0" y="6500.0" linkRefId="15_65-15_66" isBlocking="false"/>
		<stopFacility id="2315" x="1500.0" y="7500.0" linkRefId="15_75-15_76" isBlocking="false"/>
		<stopFacility id="2325" x="1500.0" y="8500.0" linkRefId="15_85-15_86" isBlocking="false"/>
		<stopFacility id="2335" x="1500.0" y="9500.0" linkRefId="15_95-15_96" isBlocking="false"/>
		<stopFacility id="2340" x="2500.0" y="9500.0" linkRefId="25_95-25_94" isBlocking="false"/>
		<stopFacility id="235" x="1500.0" y="4500.0" linkRefId="15_45-15_46" isBlocking="false"/>
		<stopFacility id="2350" x="2500.0" y="8500.0" linkRefId="25_85-25_84" isBlocking="false"/>
		<stopFacility id="2360" x="2500.0" y="7500.0" linkRefId="25_75-25_74" isBlocking="false"/>
		<stopFacility id="2370" x="2500.0" y="6500.0" linkRefId="25_65-25_64" isBlocking="false"/>
		<stopFacility id="2380" x="2500.0" y="5500.0" linkRefId="25_55-25_54" isBlocking="false"/>
		<stopFacility id="2390" x="2500.0" y="4500.0" linkRefId="25_45-25_44" isBlocking="false"/>
		<stopFacility id="2400" x="2500.0" y="3500.0" linkRefId="25_35-25_34" isBlocking="false"/>
		<stopFacility id="2410" x="2500.0" y="2500.0" linkRefId="25_25-25_24" isBlocking="false"/>
		<stopFacility id="2420" x="2500.0" y="1500.0" linkRefId="25_15-25_14" isBlocking="false"/>
		<stopFacility id="2430" x="2500.0" y="500.0" linkRefId="25_5-25_4" isBlocking="false"/>
		<stopFacility id="2440" x="2500.0" y="500.0" linkRefId="25_5-25_6" isBlocking="false"/>
		<stopFacility id="245" x="1500.0" y="5500.0" linkRefId="15_55-15_56" isBlocking="false"/>
		<stopFacility id="2450" x="2500.0" y="1500.0" linkRefId="25_15-25_16" isBlocking="false"/>
		<stopFacility id="2460" x="2500.0" y="2500.0" linkRefId="25_25-25_26" isBlocking="false"/>
		<stopFacility id="2470" x="2500.0" y="3500.0" linkRefId="25_35-25_36" isBlocking="false"/>
		<stopFacility id="2480" x="2500.0" y="4500.0" linkRefId="25_45-25_46" isBlocking="false"/>
		<stopFacility id="2490" x="2500.0" y="5500.0" linkRefId="25_55-25_56" isBlocking="false"/>
		<stopFacility id="2500" x="2500.0" y="6500.0" linkRefId="25_65-25_66" isBlocking="false"/>
		<stopFacility id="2510" x="2500.0" y="7500.0" linkRefId="25_75-25_76" isBlocking="false"/>
		<stopFacility id="2520" x="2500.0" y="8500.0" linkRefId="25_85-25_86" isBlocking="false"/>
		<stopFacility id="2530" x="2500.0" y="9500.0" linkRefId="25_95-25_96" isBlocking="false"/>
		<stopFacility id="2535" x="3500.0" y="9500.0" linkRefId="35_95-35_94" isBlocking="false"/>
		<stopFacility id="2545" x="3500.0" y="8500.0" linkRefId="35_85-35_84" isBlocking="false"/>
		<stopFacility id="255" x="1500.0" y="6500.0" linkRefId="15_65-15_66" isBlocking="false"/>
		<stopFacility id="2555" x="3500.0" y="7500.0" linkRefId="35_75-35_74" isBlocking="false"/>
		<stopFacility id="2565" x="3500.0" y="6500.0" linkRefId="35_65-35_64" isBlocking="false"/>
		<stopFacility id="2575" x="3500.0" y="5500.0" linkRefId="35_55-35_54" isBlocking="false"/>
		<stopFacility id="2585" x="3500.0" y="4500.0" linkRefId="35_45-35_44" isBlocking="false"/>
		<stopFacility id="2595" x="3500.0" y="3500.0" linkRefId="35_35-35_34" isBlocking="false"/>
		<stopFacility id="2605" x="3500.0" y="2500.0" linkRefId="35_25-35_24" isBlocking="false"/>
		<stopFacility id="2615" x="3500.0" y="1500.0" linkRefId="35_15-35_14" isBlocking="false"/>
		<stopFacility id="2625" x="3500.0" y="500.0" linkRefId="35_5-35_4" isBlocking="false"/>
		<stopFacility id="2635" x="3500.0" y="500.0" linkRefId="35_5-35_6" isBlocking="false"/>
		<stopFacility id="2645" x="3500.0" y="1500.0" linkRefId="35_15-35_16" isBlocking="false"/>
		<stopFacility id="265" x="1500.0" y="7500.0" linkRefId="15_75-15_76" isBlocking="false"/>
		<stopFacility id="2655" x="3500.0" y="2500.0" linkRefId="35_25-35_26" isBlocking="false"/>
		<stopFacility id="2665" x="3500.0" y="3500.0" linkRefId="35_35-35_36" isBlocking="false"/>
		<stopFacility id="2675" x="3500.0" y="4500.0" linkRefId="35_45-35_46" isBlocking="false"/>
		<stopFacility id="2685" x="3500.0" y="5500.0" linkRefId="35_55-35_56" isBlocking="false"/>
		<stopFacility id="2695" x="3500.0" y="6500.0" linkRefId="35_65-35_66" isBlocking="false"/>
		<stopFacility id="2705" x="3500.0" y="7500.0" linkRefId="35_75-35_76" isBlocking="false"/>
		<stopFacility id="2715" x="3500.0" y="8500.0" linkRefId="35_85-35_86" isBlocking="false"/>
		<stopFacility id="2725" x="3500.0" y="9500.0" linkRefId="35_95-35_96" isBlocking="false"/>
		<stopFacility id="2730" x="4500.0" y="9500.0" linkRefId="45_95-45_94" isBlocking="false"/>
		<stopFacility id="2740" x="4500.0" y="8500.0" linkRefId="45_85-45_84" isBlocking="false"/>
		<stopFacility id="275" x="1500.0" y="8500.0" linkRefId="15_85-15_86" isBlocking="false"/>
		<stopFacility id="2750" x="4500.0" y="7500.0" linkRefId="45_75-45_74" isBlocking="false"/>
		<stopFacility id="2760" x="4500.0" y="6500.0" linkRefId="45_65-45_64" isBlocking="false"/>
		<stopFacility id="2770" x="4500.0" y="5500.0" linkRefId="45_55-45_54" isBlocking="false"/>
		<stopFacility id="2780" x="4500.0" y="4500.0" linkRefId="45_45-45_44" isBlocking="false"/>
		<stopFacility id="2790" x="4500.0" y="3500.0" linkRefId="45_35-45_34" isBlocking="false"/>
		<stopFacility id="2800" x="4500.0" y="2500.0" linkRefId="45_25-45_24" isBlocking="false"/>
		<stopFacility id="2810" x="4500.0" y="1500.0" linkRefId="45_15-45_14" isBlocking="false"/>
		<stopFacility id="2820" x="4500.0" y="500.0" linkRefId="45_5-45_4" isBlocking="false"/>
		<stopFacility id="2830" x="4500.0" y="500.0" linkRefId="45_5-45_6" isBlocking="false"/>
		<stopFacility id="2840" x="4500.0" y="1500.0" linkRefId="45_15-45_16" isBlocking="false"/>
		<stopFacility id="285" x="1500.0" y="9500.0" linkRefId="15_95-15_96" isBlocking="false"/>
		<stopFacility id="2850" x="4500.0" y="2500.0" linkRefId="45_25-45_26" isBlocking="false"/>
		<stopFacility id="2860" x="4500.0" y="3500.0" linkRefId="45_35-45_36" isBlocking="false"/>
		<stopFacility id="2870" x="4500.0" y="4500.0" linkRefId="45_45-45_46" isBlocking="false"/>
		<stopFacility id="2880" x="4500.0" y="5500.0" linkRefId="45_55-45_56" isBlocking="false"/>
		<stopFacility id="2890" x="4500.0" y="6500.0" linkRefId="45_65-45_66" isBlocking="false"/>
		<stopFacility id="2900" x="4500.0" y="7500.0" linkRefId="45_75-45_76" isBlocking="false"/>
		<stopFacility id="2910" x="4500.0" y="8500.0" linkRefId="45_85-45_86" isBlocking="false"/>
		<stopFacility id="2920" x="4500.0" y="9500.0" linkRefId="45_95-45_96" isBlocking="false"/>
		<stopFacility id="2925" x="5500.0" y="9500.0" linkRefId="55_95-55_94" isBlocking="false"/>
		<stopFacility id="2935" x="5500.0" y="8500.0" linkRefId="55_85-55_84" isBlocking="false"/>
		<stopFacility id="2945" x="5500.0" y="7500.0" linkRefId="55_75-55_74" isBlocking="false"/>
		<stopFacility id="295" x="1500.0" y="9500.0" linkRefId="15_95-15_94" isBlocking="false"/>
		<stopFacility id="2955" x="5500.0" y="6500.0" linkRefId="55_65-55_64" isBlocking="false"/>
		<stopFacility id="2965" x="5500.0" y="5500.0" linkRefId="55_55-55_54" isBlocking="false"/>
		<stopFacility id="2975" x="5500.0" y="4500.0" linkRefId="55_45-55_44" isBlocking="false"/>
		<stopFacility id="2985" x="5500.0" y="3500.0" linkRefId="55_35-55_34" isBlocking="false"/>
		<stopFacility id="2995" x="5500.0" y="2500.0" linkRefId="55_25-55_24" isBlocking="false"/>
		<stopFacility id="30" x="500.0" y="3500.0" linkRefId="5_35-5_36" isBlocking="false"/>
		<stopFacility id="3005" x="5500.0" y="1500.0" linkRefId="55_15-55_14" isBlocking="false"/>
		<stopFacility id="3015" x="5500.0" y="500.0" linkRefId="55_5-55_4" isBlocking="false"/>
		<stopFacility id="3025" x="5500.0" y="500.0" linkRefId="55_5-55_6" isBlocking="false"/>
		<stopFacility id="3035" x="5500.0" y="1500.0" linkRefId="55_15-55_16" isBlocking="false"/>
		<stopFacility id="3045" x="5500.0" y="2500.0" linkRefId="55_25-55_26" isBlocking="false"/>
		<stopFacility id="305" x="1500.0" y="8500.0" linkRefId="15_85-15_84" isBlocking="false"/>
		<stopFacility id="3055" x="5500.0" y="3500.0" linkRefId="55_35-55_36" isBlocking="false"/>
		<stopFacility id="3065" x="5500.0" y="4500.0" linkRefId="55_45-55_46" isBlocking="false"/>
		<stopFacility id="3075" x="5500.0" y="5500.0" linkRefId="55_55-55_56" isBlocking="false"/>
		<stopFacility id="3085" x="5500.0" y="6500.0" linkRefId="55_65-55_66" isBlocking="false"/>
		<stopFacility id="3095" x="5500.0" y="7500.0" linkRefId="55_75-55_76" isBlocking="false"/>
		<stopFacility id="3105" x="5500.0" y="8500.0" linkRefId="55_85-55_86" isBlocking="false"/>
		<stopFacility id="3115" x="5500.0" y="9500.0" linkRefId="55_95-55_96" isBlocking="false"/>
		<stopFacility id="3120" x="6500.0" y="9500.0" linkRefId="65_95-65_94" isBlocking="false"/>
		<stopFacility id="3130" x="6500.0" y="8500.0" linkRefId="65_85-65_84" isBlocking="false"/>
		<stopFacility id="3140" x="6500.0" y="7500.0" linkRefId="65_75-65_74" isBlocking="false"/>
		<stopFacility id="315" x="1500.0" y="7500.0" linkRefId="15_75-15_74" isBlocking="false"/>
		<stopFacility id="3150" x="6500.0" y="6500.0" linkRefId="65_65-65_64" isBlocking="false"/>
		<stopFacility id="3160" x="6500.0" y="5500.0" linkRefId="65_55-65_54" isBlocking="false"/>
		<stopFacility id="3170" x="6500.0" y="4500.0" linkRefId="65_45-65_44" isBlocking="false"/>
		<stopFacility id="3180" x="6500.0" y="3500.0" linkRefId="65_35-65_34" isBlocking="false"/>
		<stopFacility id="3190" x="6500.0" y="2500.0" linkRefId="65_25-65_24" isBlocking="false"/>
		<stopFacility id="3200" x="6500.0" y="1500.0" linkRefId="65_15-65_14" isBlocking="false"/>
		<stopFacility id="3210" x="6500.0" y="500.0" linkRefId="65_5-65_4" isBlocking="false"/>
		<stopFacility id="3220" x="6500.0" y="500.0" linkRefId="65_5-65_6" isBlocking="false"/>
		<stopFacility id="3230" x="6500.0" y="1500.0" linkRefId="65_15-65_16" isBlocking="false"/>
		<stopFacility id="3240" x="6500.0" y="2500.0" linkRefId="65_25-65_26" isBlocking="false"/>
		<stopFacility id="325" x="1500.0" y="6500.0" linkRefId="15_65-15_64" isBlocking="false"/>
		<stopFacility id="3250" x="6500.0" y="3500.0" linkRefId="65_35-65_36" isBlocking="false"/>
		<stopFacility id="3260" x="6500.0" y="4500.0" linkRefId="65_45-65_46" isBlocking="false"/>
		<stopFacility id="3270" x="6500.0" y="5500.0" linkRefId="65_55-65_56" isBlocking="false"/>
		<stopFacility id="3280" x="6500.0" y="6500.0" linkRefId="65_65-65_66" isBlocking="false"/>
		<stopFacility id="3290" x="6500.0" y="7500.0" linkRefId="65_75-65_76" isBlocking="false"/>
		<stopFacility id="3300" x="6500.0" y="8500.0" linkRefId="65_85-65_86" isBlocking="false"/>
		<stopFacility id="3310" x="6500.0" y="9500.0" linkRefId="65_95-65_96" isBlocking="false"/>
		<stopFacility id="3315" x="7500.0" y="9500.0" linkRefId="75_95-75_94" isBlocking="false"/>
		<stopFacility id="3325" x="7500.0" y="8500.0" linkRefId="75_85-75_84" isBlocking="false"/>
		<stopFacility id="3335" x="7500.0" y="7500.0" linkRefId="75_75-75_74" isBlocking="false"/>
		<stopFacility id="3345" x="7500.0" y="6500.0" linkRefId="75_65-75_64" isBlocking="false"/>
		<stopFacility id="335" x="1500.0" y="5500.0" linkRefId="15_55-15_54" isBlocking="false"/>
		<stopFacility id="3355" x="7500.0" y="5500.0" linkRefId="75_55-75_54" isBlocking="false"/>
		<stopFacility id="3365" x="7500.0" y="4500.0" linkRefId="75_45-75_44" isBlocking="false"/>
		<stopFacility id="3375" x="7500.0" y="3500.0" linkRefId="75_35-75_34" isBlocking="false"/>
		<stopFacility id="3385" x="7500.0" y="2500.0" linkRefId="75_25-75_24" isBlocking="false"/>
		<stopFacility id="3395" x="7500.0" y="1500.0" linkRefId="75_15-75_14" isBlocking="false"/>
		<stopFacility id="3405" x="7500.0" y="500.0" linkRefId="75_5-75_4" isBlocking="false"/>
		<stopFacility id="3415" x="7500.0" y="500.0" linkRefId="75_5-75_6" isBlocking="false"/>
		<stopFacility id="3425" x="7500.0" y="1500.0" linkRefId="75_15-75_16" isBlocking="false"/>
		<stopFacility id="3435" x="7500.0" y="2500.0" linkRefId="75_25-75_26" isBlocking="false"/>
		<stopFacility id="3445" x="7500.0" y="3500.0" linkRefId="75_35-75_36" isBlocking="false"/>
		<stopFacility id="345" x="1500.0" y="4500.0" linkRefId="15_45-15_44" isBlocking="false"/>
		<stopFacility id="3455" x="7500.0" y="4500.0" linkRefId="75_45-75_46" isBlocking="false"/>
		<stopFacility id="3465" x="7500.0" y="5500.0" linkRefId="75_55-75_56" isBlocking="false"/>
		<stopFacility id="3475" x="7500.0" y="6500.0" linkRefId="75_65-75_66" isBlocking="false"/>
		<stopFacility id="3485" x="7500.0" y="7500.0" linkRefId="75_75-75_76" isBlocking="false"/>
		<stopFacility id="3495" x="7500.0" y="8500.0" linkRefId="75_85-75_86" isBlocking="false"/>
		<stopFacility id="3505" x="7500.0" y="9500.0" linkRefId="75_95-75_96" isBlocking="false"/>
		<stopFacility id="3510" x="8500.0" y="9500.0" linkRefId="85_95-85_94" isBlocking="false"/>
		<stopFacility id="3520" x="8500.0" y="8500.0" linkRefId="85_85-85_84" isBlocking="false"/>
		<stopFacility id="3530" x="8500.0" y="7500.0" linkRefId="85_75-85_74" isBlocking="false"/>
		<stopFacility id="3540" x="8500.0" y="6500.0" linkRefId="85_65-85_64" isBlocking="false"/>
		<stopFacility id="355" x="1500.0" y="3500.0" linkRefId="15_35-15_34" isBlocking="false"/>
		<stopFacility id="3550" x="8500.0" y="5500.0" linkRefId="85_55-85_54" isBlocking="false"/>
		<stopFacility id="3560" x="8500.0" y="4500.0" linkRefId="85_45-85_44" isBlocking="false"/>
		<stopFacility id="3570" x="8500.0" y="3500.0" linkRefId="85_35-85_34" isBlocking="false"/>
		<stopFacility id="3580" x="8500.0" y="2500.0" linkRefId="85_25-85_24" isBlocking="false"/>
		<stopFacility id="3590" x="8500.0" y="1500.0" linkRefId="85_15-85_14" isBlocking="false"/>
		<stopFacility id="3600" x="8500.0" y="500.0" linkRefId="85_5-85_4" isBlocking="false"/>
		<stopFacility id="3610" x="8500.0" y="500.0" linkRefId="85_5-85_6" isBlocking="false"/>
		<stopFacility id="3620" x="8500.0" y="1500.0" linkRefId="85_15-85_16" isBlocking="false"/>
		<stopFacility id="3630" x="8500.0" y="2500.0" linkRefId="85_25-85_26" isBlocking="false"/>
		<stopFacility id="3640" x="8500.0" y="3500.0" linkRefId="85_35-85_36" isBlocking="false"/>
		<stopFacility id="365" x="1500.0" y="2500.0" linkRefId="15_25-15_24" isBlocking="false"/>
		<stopFacility id="3650" x="8500.0" y="4500.0" linkRefId="85_45-85_46" isBlocking="false"/>
		<stopFacility id="3660" x="8500.0" y="5500.0" linkRefId="85_55-85_56" isBlocking="false"/>
		<stopFacility id="3670" x="8500.0" y="6500.0" linkRefId="85_65-85_66" isBlocking="false"/>
		<stopFacility id="3680" x="8500.0" y="7500.0" linkRefId="85_75-85_76" isBlocking="false"/>
		<stopFacility id="3690" x="8500.0" y="8500.0" linkRefId="85_85-85_86" isBlocking="false"/>
		<stopFacility id="3700" x="8500.0" y="9500.0" linkRefId="85_95-85_96" isBlocking="false"/>
		<stopFacility id="3705" x="9500.0" y="9500.0" linkRefId="95_95-95_94" isBlocking="false"/>
		<stopFacility id="3715" x="9500.0" y="8500.0" linkRefId="95_85-95_84" isBlocking="false"/>
		<stopFacility id="3725" x="9500.0" y="7500.0" linkRefId="95_75-95_74" isBlocking="false"/>
		<stopFacility id="3735" x="9500.0" y="6500.0" linkRefId="95_65-95_64" isBlocking="false"/>
		<stopFacility id="3745" x="9500.0" y="5500.0" linkRefId="95_55-95_54" isBlocking="false"/>
		<stopFacility id="375" x="1500.0" y="1500.0" linkRefId="15_15-15_14" isBlocking="false"/>
		<stopFacility id="3755" x="9500.0" y="4500.0" linkRefId="95_45-95_44" isBlocking="false"/>
		<stopFacility id="3765" x="9500.0" y="3500.0" linkRefId="95_35-95_34" isBlocking="false"/>
		<stopFacility id="3775" x="9500.0" y="2500.0" linkRefId="95_25-95_24" isBlocking="false"/>
		<stopFacility id="3785" x="9500.0" y="1500.0" linkRefId="95_15-95_14" isBlocking="false"/>
		<stopFacility id="3795" x="9500.0" y="500.0" linkRefId="95_5-95_4" isBlocking="false"/>
		<stopFacility id="3805" x="9500.0" y="500.0" linkRefId="95_5-95_6" isBlocking="false"/>
		<stopFacility id="3815" x="9500.0" y="1500.0" linkRefId="95_15-95_16" isBlocking="false"/>
		<stopFacility id="3825" x="9500.0" y="2500.0" linkRefId="95_25-95_26" isBlocking="false"/>